
     RDKit          3D

 21 22  0  0  0  0  0  0  0  0999 V2000
    6.4220    0.8050   17.1730 N   0  0  0  0  0  0  0  0  0  0  0  0
    4.6450    0.9780   21.0950 C   0  0  0  0  0  0  0  0  0  0  0  0
    8.7700    0.6300   20.8520 O   0  0  0  0  0  0  0  0  0  0  0  0
    5.2190    0.8400   19.7090 C   0  0  0  0  0  0  0  0  0  0  0  0
    6.9500   -0.6810   20.4870 N   0  0  0  0  0  0  0  0  0  0  0  0
    4.6990    1.5750   18.6520 C   0  0  0  0  0  0  0  0  0  0  0  0
    5.3290    1.5410   17.4260 C   0  0  0  0  0  0  0  0  0  0  0  0
    6.9200    0.0740   18.1760 C   0  0  0  0  0  0  0  0  0  0  0  0
    6.3600    0.0610   19.4500 C   0  0  0  0  0  0  0  0  0  0  0  0
    8.1250   -0.3910   21.0760 C   0  0  0  0  0  0  0  0  0  0  0  0
    8.6030   -1.4410   22.0560 C   0  0  0  0  0  0  0  0  0  0  0  0
    9.7630   -0.9070   22.8550 C   0  0  0  0  0  0  0  0  0  0  0  0
    9.5520   -0.1210   23.9830 C   0  0  0  0  0  0  0  0  0  0  0  0
   10.6210    0.3550   24.7230 C   0  0  0  0  0  0  0  0  0  0  0  0
   11.9120    0.0360   24.3450 C   0  0  0  0  0  0  0  0  0  0  0  0
   12.1440   -0.7570   23.2260 C   0  0  0  0  0  0  0  0  0  0  0  0
   11.0660   -1.2120   22.4800 C   0  0  0  0  0  0  0  0  0  0  0  0
   13.5240   -1.2150   22.8930 C   0  0  2  0  0  0  0  0  0  0  0  0
   13.7630   -1.2470   21.5750 F   0  0  0  0  0  0  0  0  0  0  0  0
   13.7920   -2.4280   23.3960 F   0  0  0  0  0  0  0  0  0  0  0  0
   14.4330   -0.4060   23.3790 F   0  0  0  0  0  0  0  0  0  0  0  0
  4  2  1  0
  6  4  2  0
  7  6  1  0
  7  1  2  0
  8  1  1  0
  9  4  1  0
  9  8  2  0
  9  5  1  0
 10  5  1  0
 10  3  2  0
 11 10  1  0
 12 11  1  0
 13 12  2  0
 14 13  1  0
 15 14  2  0
 16 15  1  0
 17 12  1  0
 17 16  2  0
 18 16  1  0
 18 19  1  6
 20 18  1  0
 21 18  1  0
M  END
