
     RDKit          3D

 16 17  0  0  0  0  0  0  0  0999 V2000
    9.2100   -3.7380   24.7640 N   0  0  0  0  0  0  0  0  0  0  0  0
   10.8930    2.6270   23.6030 C   0  0  0  0  0  0  0  0  0  0  0  0
   10.3010    1.6930   21.2550 O   0  0  0  0  0  0  0  0  0  0  0  0
    9.7430    0.1180   23.2490 C   0  0  2  0  0  0  0  0  0  0  0  0
    8.9720   -6.3630   25.8070 N   0  0  0  0  0  0  0  0  0  0  0  0
    8.4570    2.3280   22.7580 O   0  0  0  0  0  0  0  0  0  0  0  0
    9.8820   -0.9710   22.4040 C   0  0  0  0  0  0  0  0  0  0  0  0
    9.7290   -2.2480   22.9130 C   0  0  0  0  0  0  0  0  0  0  0  0
    9.4410   -2.4500   24.2640 C   0  0  0  0  0  0  0  0  0  0  0  0
    9.3430   -1.3410   25.0980 C   0  0  0  0  0  0  0  0  0  0  0  0
    9.5000   -0.0630   24.6000 C   0  0  0  0  0  0  0  0  0  0  0  0
    9.9990   -4.8410   24.2110 C   0  0  0  0  0  0  0  0  0  0  0  0
    9.2350   -6.1300   24.3750 C   0  0  0  0  0  0  0  0  0  0  0  0
    8.1880   -5.2580   26.4000 C   0  0  0  0  0  0  0  0  0  0  0  0
    8.8950   -3.9340   26.1860 C   0  0  0  0  0  0  0  0  0  0  0  0
    9.7630    1.7560   22.5840 S   0  0  1  0  0  0  0  0  0  0  0  0
  4  7  1  6
  8  7  1  0
  9  8  1  0
  9  1  1  0
 10  9  1  0
 11 10  1  0
 11  4  1  0
 12  1  1  0
 13  5  1  0
 13 12  1  0
 14  5  1  0
 15 14  1  0
 15  1  1  0
 16  3  1  0
 16  6  1  0
 16  4  1  0
 16  2  1  1
M  END
$$$$
