
     RDKit          3D

 17 18  0  0  0  0  0  0  0  0999 V2000
    5.4960    1.1840   17.9700 N   0  0  0  0  0  0  0  0  0  0  0  0
    4.7470    1.8500   20.2430 C   0  0  0  0  0  0  0  0  0  0  0  0
    8.9600    0.8630   20.8620 O   0  0  0  0  0  0  0  0  0  0  0  0
   13.5920   -1.6450   21.4390 Cl  0  0  0  0  0  0  0  0  0  0  0  0
    5.5930    1.0520   19.3040 C   0  0  0  0  0  0  0  0  0  0  0  0
    6.4100    0.4090   17.3160 N   0  0  0  0  0  0  0  0  0  0  0  0
    7.0800   -0.2210   18.2720 C   0  0  0  0  0  0  0  0  0  0  0  0
    7.0460   -0.3750   20.7620 N   0  0  0  0  0  0  0  0  0  0  0  0
    6.5990    0.1440   19.5310 C   0  0  0  0  0  0  0  0  0  0  0  0
    8.2320   -0.0080   21.3330 C   0  0  0  0  0  0  0  0  0  0  0  0
    8.5930   -0.7720   22.5910 C   0  0  0  0  0  0  0  0  0  0  0  0
   10.0490   -0.5600   22.9290 C   0  0  2  0  0  0  0  0  0  0  0  0
   10.4240    0.3540   23.9020 C   0  0  0  0  0  0  0  0  0  0  0  0
   11.7550    0.6970   24.0760 C   0  0  0  0  0  0  0  0  0  0  0  0
   12.7350    0.1200   23.2840 C   0  0  0  0  0  0  0  0  0  0  0  0
   12.3620   -0.8280   22.3600 C   0  0  0  0  0  0  0  0  0  0  0  0
   11.0400   -1.1800   22.1730 C   0  0  0  0  0  0  0  0  0  0  0  0
  5  2  1  0
  5  1  1  0
  6  1  1  0
  7  6  1  0
  9  8  1  0
  9  7  1  0
  9  5  1  0
 10  8  1  0
 10  3  1  0
 11 10  1  0
 12 11  1  6
 13 12  1  0
 14 13  1  0
 15 14  1  0
 16  4  1  0
 16 15  1  0
 17 12  1  0
 17 16  1  0
M  END
$$$$
