
     RDKit          3D

 18 19  0  0  0  0  0  0  0  0999 V2000
    6.4660    0.6040   17.3980 N   0  0  0  0  0  0  0  0  0  0  0  0
    4.9440    1.0340   21.4120 C   0  0  0  0  0  0  0  0  0  0  0  0
    9.0410    0.9360   20.7980 O   0  0  0  0  0  0  0  0  0  0  0  0
   13.9610   -1.6030   21.4650 Cl  0  0  0  0  0  0  0  0  0  0  0  0
    5.4410    0.8070   20.0060 C   0  0  0  0  0  0  0  0  0  0  0  0
    7.3120   -0.5480   20.7960 N   0  0  0  0  0  0  0  0  0  0  0  0
    4.7980    1.3980   18.9250 C   0  0  0  0  0  0  0  0  0  0  0  0
    9.0370   -0.7840   22.2840 N   0  0  0  0  0  0  0  0  0  0  0  0
    5.3380    1.2770   17.6600 C   0  0  0  0  0  0  0  0  0  0  0  0
    7.0840    0.0130   18.4260 C   0  0  0  0  0  0  0  0  0  0  0  0
    6.6150    0.0770   19.7390 C   0  0  0  0  0  0  0  0  0  0  0  0
    8.5000   -0.0600   21.2580 C   0  0  0  0  0  0  0  0  0  0  0  0
   10.3430   -0.5690   22.7690 C   0  0  0  0  0  0  0  0  0  0  0  0
   10.6300    0.4090   23.7160 C   0  0  0  0  0  0  0  0  0  0  0  0
   11.9470    0.7650   23.9620 C   0  0  0  0  0  0  0  0  0  0  0  0
   12.9820    0.1530   23.2690 C   0  0  0  0  0  0  0  0  0  0  0  0
   12.6750   -0.8330   22.3510 C   0  0  0  0  0  0  0  0  0  0  0  0
   11.3740   -1.2160   22.0970 C   0  0  0  0  0  0  0  0  0  0  0  0
  5  2  1  0
  7  5  2  0
  9  7  1  0
  9  1  2  0
 10  1  1  0
 11  5  1  0
 11 10  2  0
 11  6  1  0
 12  6  1  0
 12  3  2  0
 12  8  1  0
 13  8  1  0
 14 13  2  0
 15 14  1  0
 16 15  2  0
 17  4  1  0
 17 16  1  0
 18 13  1  0
 18 17  2  0
M  END
