
     RDKit          3D

 25 27  0  0  0  0  0  0  0  0999 V2000
   13.9600    6.6700   21.6400 O   0  0  0  0  0  0  0  0  0  0  0  0
   13.4570    5.6140   22.0160 C   0  0  0  0  0  0  0  0  0  0  0  0
   13.1390    4.2730   21.3730 C   0  0  0  0  0  0  0  0  0  0  0  0
   12.9840    5.2220   23.2120 N   0  0  0  0  0  0  0  0  0  0  0  0
   12.4760    3.9420   22.7130 C   0  0  2  0  0  0  0  0  0  0  0  0
   13.1700    2.8190   23.3000 O   0  0  0  0  0  0  0  0  0  0  0  0
   12.7280    1.5660   22.9290 C   0  0  0  0  0  0  0  0  0  0  0  0
   13.6130    0.6090   22.4560 C   0  0  0  0  0  0  0  0  0  0  0  0
   13.1060   -0.6270   22.1000 C   0  0  0  0  0  0  0  0  0  0  0  0
   14.1990   -1.8620   21.5410 Cl  0  0  0  0  0  0  0  0  0  0  0  0
   11.7590   -0.9160   22.1940 C   0  0  0  0  0  0  0  0  0  0  0  0
   11.3750    1.2920   23.0470 C   0  0  0  0  0  0  0  0  0  0  0  0
   10.8770    0.0530   22.6630 C   0  0  0  0  0  0  0  0  0  0  0  0
    9.3770   -0.2020   22.6880 C   0  0  2  0  0  0  0  0  0  0  0  0
    8.9530   -1.6540   22.9640 C   0  0  0  0  0  0  0  0  0  0  0  0
    8.6630    0.6880   21.6640 C   0  0  0  0  0  0  0  0  0  0  0  0
    8.5140    1.8930   21.8560 O   0  0  0  0  0  0  0  0  0  0  0  0
    8.2710    0.0670   20.5180 N   0  0  0  0  0  0  0  0  0  0  0  0
    7.1350    0.2130   19.6780 C   0  0  0  0  0  0  0  0  0  0  0  0
    5.9490    0.8350   20.1300 C   0  0  0  0  0  0  0  0  0  0  0  0
    5.5090    0.7750   21.5700 C   0  0  0  0  0  0  0  0  0  0  0  0
    5.0770    1.3260   19.1640 C   0  0  0  0  0  0  0  0  0  0  0  0
    5.3620    1.1360   17.8280 C   0  0  0  0  0  0  0  0  0  0  0  0
    6.4380    0.4790   17.3870 N   0  0  0  0  0  0  0  0  0  0  0  0
    7.2980    0.0240   18.3050 C   0  0  0  0  0  0  0  0  0  0  0  0
  2  1  2  0
  3  2  1  0
  4  2  1  0
  5  3  1  0
  5  4  1  0
  5  6  1  1
  7  6  1  0
  8  7  2  0
  9  8  1  0
 10  9  1  0
 11  9  2  0
 12  7  1  0
 13 12  2  0
 13 11  1  0
 14 13  1  0
 14 15  1  6
 16 14  1  0
 17 16  2  0
 18 16  1  0
 19 18  1  0
 20 19  2  0
 21 20  1  0
 22 20  1  0
 23 22  2  0
 24 23  1  0
 25 24  2  0
 25 19  1  0
M  END
