
     RDKit          3D

 26 28  0  0  0  0  0  0  0  0999 V2000
    7.2180   -1.4530   21.3440 N   0  0  0  0  0  0  0  0  0  0  0  0
   10.2030    2.5620   24.1030 C   0  0  0  0  0  0  0  0  0  0  0  0
   10.0050    1.2840   23.4990 O   0  0  0  0  0  0  0  0  0  0  0  0
   11.1130    0.5530   23.1630 C   0  0  0  0  0  0  0  0  0  0  0  0
    4.7040    1.6110   18.1710 N   0  0  0  0  0  0  0  0  0  0  0  0
    9.5330   -1.1390   22.8230 O   0  0  0  0  0  0  0  0  0  0  0  0
   12.4180    1.0280   23.1820 C   0  0  0  0  0  0  0  0  0  0  0  0
    5.5070   -2.6640   20.5510 O   0  0  0  0  0  0  0  0  0  0  0  0
   13.4580    0.1790   22.8410 C   0  0  0  0  0  0  0  0  0  0  0  0
    6.3550    1.1300   16.7100 O   0  0  0  0  0  0  0  0  0  0  0  0
   13.2050   -1.1270   22.4710 C   0  0  0  0  0  0  0  0  0  0  0  0
   11.9080   -1.6180   22.4500 C   0  0  0  0  0  0  0  0  0  0  0  0
   10.8570   -0.7800   22.7970 C   0  0  0  0  0  0  0  0  0  0  0  0
    9.1620   -2.4640   22.4170 C   0  0  0  0  0  0  0  0  0  0  0  0
    7.6700   -2.4840   22.2680 C   0  0  0  0  0  0  0  0  0  0  0  0
    6.1080   -1.5930   20.6210 C   0  0  0  0  0  0  0  0  0  0  0  0
    5.6340   -0.3810   19.8790 C   0  0  1  0  0  0  0  0  0  0  0  0
    6.1800   -0.1640   18.6520 C   0  0  0  0  0  0  0  0  0  0  0  0
    5.7660    0.8530   17.7580 C   0  0  1  0  0  0  0  0  0  0  0  0
    4.0890    1.4940   19.4180 C   0  0  0  0  0  0  0  0  0  0  0  0
    3.0390    2.3480   19.7480 C   0  0  0  0  0  0  0  0  0  0  0  0
    2.4520    2.2600   20.9970 C   0  0  0  0  0  0  0  0  0  0  0  0
    2.9130    1.3460   21.9210 C   0  0  0  0  0  0  0  0  0  0  0  0
    3.9630    0.4760   21.6280 C   0  0  2  0  0  0  0  0  0  0  0  0
    4.4750   -0.4150   22.7300 C   0  0  0  0  0  0  0  0  0  0  0  0
    4.5480    0.5240   20.3420 C   0  0  0  0  0  0  0  0  0  0  0  0
  3  2  1  0
  4  3  1  0
  7  4  1  0
  9  7  1  0
 11  9  1  0
 12 11  1  0
 13  6  1  0
 13 12  1  0
 13  4  1  0
 14  6  1  0
 15  1  1  0
 15 14  1  0
 16  8  1  0
 16  1  1  0
 17 16  1  6
 18 17  1  0
 19  5  1  0
 19 18  1  0
 19 10  1  1
 20  5  1  0
 21 20  1  0
 22 21  1  0
 23 22  1  0
 24 23  1  0
 24 25  1  1
 26 24  1  0
 26 20  1  0
 26 17  1  0
M  END
$$$$
