
     RDKit          3D

 20 21  0  0  0  0  0  0  0  0999 V2000
    6.6740   -4.0760   21.4510 N   0  0  0  0  0  0  0  0  0  0  0  0
    5.0130   -3.1340   25.2900 C   0  0  0  0  0  0  0  0  0  0  0  0
    3.8190   -2.9930   25.0800 O   0  0  0  0  0  0  0  0  0  0  0  0
    5.9360   -3.6290   24.1970 C   0  0  0  0  0  0  0  0  0  0  0  0
    5.5490   -2.9000   26.5200 N   0  0  0  0  0  0  0  0  0  0  0  0
    5.7230   -4.9130   19.6010 O   0  0  0  0  0  0  0  0  0  0  0  0
    5.2530   -4.7140   23.3510 C   0  0  0  0  0  0  0  0  0  0  0  0
    6.2300   -5.2000   22.2870 C   0  0  0  0  0  0  0  0  0  0  0  0
    6.3920   -4.0470   20.1370 C   0  0  0  0  0  0  0  0  0  0  0  0
    6.9530   -2.8930   19.3330 C   0  0  0  0  0  0  0  0  0  0  0  0
    7.3310   -2.9990   22.2060 C   0  0  0  0  0  0  0  0  0  0  0  0
    6.4060   -2.4690   23.3050 C   0  0  0  0  0  0  0  0  0  0  0  0
    4.7660   -2.1880   27.5260 C   0  0  0  0  0  0  0  0  0  0  0  0
    6.8660   -3.3050   26.9110 C   0  0  0  0  0  0  0  0  0  0  0  0
    7.1140   -4.6370   27.2440 C   0  0  0  0  0  0  0  0  0  0  0  0
    8.4180   -5.0650   27.4310 C   0  0  0  0  0  0  0  0  0  0  0  0
    9.4690   -4.1790   27.3040 C   0  0  0  0  0  0  0  0  0  0  0  0
    9.2200   -2.8470   27.0220 C   0  0  0  0  0  0  0  0  0  0  0  0
    7.9220   -2.4000   26.8300 C   0  0  0  0  0  0  0  0  0  0  0  0
    8.5150   -3.3970   18.5630 S   0  0  0  0  0  0  0  0  0  0  0  0
  3  2  2  0
  4  2  1  0
  5  2  1  0
  7  4  1  0
  8  7  1  0
  8  1  1  0
  9  6  2  0
  9  1  1  0
 10  9  1  0
 11  1  1  0
 12 11  1  0
 12  4  1  0
 13  5  1  0
 14  5  1  0
 15 14  2  0
 16 15  1  0
 17 16  2  0
 18 17  1  0
 19 18  2  0
 19 14  1  0
 10 20  1  0
M  END
