
     RDKit          3D

 29 30  0  0  0  0  0  0  0  0999 V2000
    6.9420    3.6580   23.0970 C   0  0  0  0  0  0  0  0  0  0  0  0
    6.1380    4.6800   22.5680 C   0  0  0  0  0  0  0  0  0  0  0  0
    4.7450    4.5830   22.6380 C   0  0  0  0  0  0  0  0  0  0  0  0
    4.1570    3.4750   23.2300 C   0  0  0  0  0  0  0  0  0  0  0  0
    4.9600    2.4530   23.7590 C   0  0  0  0  0  0  0  0  0  0  0  0
    6.3510    2.5490   23.6910 C   0  0  0  0  0  0  0  0  0  0  0  0
    8.4930    3.7700   23.0160 C   0  0  0  0  0  0  0  0  0  0  0  0
    9.0530    2.6320   23.6290 O   0  0  0  0  0  0  0  0  0  0  0  0
    9.3890    1.5850   22.7400 C   0  0  0  0  0  0  0  0  0  0  0  0
    9.0420    1.6180   21.6060 O   0  0  0  0  0  0  0  0  0  0  0  0
   10.1680    0.4510   23.2460 N   0  0  0  0  0  0  0  0  0  0  0  0
   10.2380   -0.7820   22.4720 C   0  0  1  0  0  0  0  0  0  0  0  0
   11.0060   -1.8160   23.2680 C   0  0  0  0  0  0  0  0  0  0  0  0
   12.4150   -1.3370   23.6210 C   0  0  1  0  0  0  0  0  0  0  0  0
   13.2140   -2.4500   24.3100 C   0  0  0  0  0  0  0  0  0  0  0  0
   13.1790   -0.7700   22.3540 C   0  0  0  0  0  0  0  0  0  0  0  0
    8.8240   -1.2980   22.1600 C   0  0  0  0  0  0  0  0  0  0  0  0
    7.9420   -1.2360   22.9630 O   0  0  0  0  0  0  0  0  0  0  0  0
    8.5810   -1.8750   20.8260 N   0  0  0  0  0  0  0  0  0  0  0  0
    7.2730   -2.3830   20.4400 C   0  0  2  0  0  0  0  0  0  0  0  0
    7.3940   -3.8240   19.9710 C   0  0  0  0  0  0  0  0  0  0  0  0
    6.3960   -4.4280   19.7460 O   0  0  0  0  0  0  0  0  0  0  0  0
    6.7680   -1.5750   19.2350 C   0  0  0  0  0  0  0  0  0  0  0  0
    6.1790   -0.1190   19.5610 C   0  0  2  0  0  0  0  0  0  0  0  0
    5.1400   -0.1620   20.7210 C   0  0  0  0  0  0  0  0  0  0  0  0
    4.1020    0.9670   20.3530 C   0  0  0  0  0  0  0  0  0  0  0  0
    4.2670    1.2390   19.0470 N   0  0  0  0  0  0  0  0  0  0  0  0
    5.4400    0.2520   18.4960 C   0  0  1  0  0  0  0  0  0  0  0  0
    6.2180    0.8860   17.5400 O   0  0  0  0  0  0  0  0  0  0  0  0
  2  1  1  0
  3  2  1  0
  4  3  1  0
  5  4  1  0
  6  5  1  0
  6  1  1  0
  7  1  1  0
  8  7  1  0
  9  8  1  0
 10  9  1  0
 11  9  1  0
 12 11  1  0
 12 13  1  1
 14 13  1  0
 14 15  1  6
 16 14  1  0
 17 12  1  0
 18 17  1  0
 19 17  1  0
 20 19  1  0
 20 21  1  6
 22 21  1  0
 23 20  1  0
 24 23  1  6
 25 24  1  0
 26 25  1  0
 27 26  1  0
 28 27  1  0
 28 24  1  0
 28 29  1  6
M  END
