
     RDKit          3D

 19 20  0  0  0  0  0  0  0  0999 V2000
   13.2070   -1.6960   22.0270 F   0  0  0  0  0  0  0  0  0  0  0  0
   13.0310   -1.6670   23.3690 C   0  0  0  0  0  0  0  0  0  0  0  0
   13.8430   -2.4500   24.1570 C   0  0  0  0  0  0  0  0  0  0  0  0
   13.6920   -2.3820   25.5320 C   0  0  0  0  0  0  0  0  0  0  0  0
   12.7580   -1.5300   26.0830 C   0  0  0  0  0  0  0  0  0  0  0  0
   11.9480   -0.7550   25.2620 C   0  0  0  0  0  0  0  0  0  0  0  0
   12.0570   -0.8270   23.8730 C   0  0  0  0  0  0  0  0  0  0  0  0
   11.1090   -0.0290   23.0020 C   0  0  0  0  0  0  0  0  0  0  0  0
    9.9620   -0.8650   22.3880 C   0  0  0  0  0  0  0  0  0  0  0  0
    9.1140   -0.0550   21.4330 C   0  0  0  0  0  0  0  0  0  0  0  0
    9.4580    1.0600   21.0530 O   0  0  0  0  0  0  0  0  0  0  0  0
    7.9800   -0.6530   21.0210 N   0  0  0  0  0  0  0  0  0  0  0  0
    7.1350   -0.0780   20.0300 C   0  0  0  0  0  0  0  0  0  0  0  0
    5.9440    0.5800   20.4110 C   0  0  0  0  0  0  0  0  0  0  0  0
    5.5560    0.7530   21.8580 C   0  0  0  0  0  0  0  0  0  0  0  0
    7.4640   -0.1120   18.6740 C   0  0  0  0  0  0  0  0  0  0  0  0
    6.7100    0.4330   17.7120 N   0  0  0  0  0  0  0  0  0  0  0  0
    5.5740    1.0290   18.0870 C   0  0  0  0  0  0  0  0  0  0  0  0
    5.1590    1.1250   19.3990 C   0  0  0  0  0  0  0  0  0  0  0  0
  2  1  1  0
  3  2  2  0
  4  3  1  0
  5  4  2  0
  6  5  1  0
  7  6  2  0
  7  2  1  0
  8  7  1  0
  9  8  1  0
 10  9  1  0
 11 10  2  0
 12 10  1  0
 13 12  1  0
 14 13  2  0
 15 14  1  0
 16 13  1  0
 17 16  2  0
 18 17  1  0
 19 18  2  0
 19 14  1  0
M  END
