
     RDKit          3D

 23 24  0  0  0  0  0  0  0  0999 V2000
    9.2180    0.9180   20.9910 O   0  0  0  0  0  0  0  0  0  0  0  0
    8.5900   -0.0110   21.4930 C   0  0  0  0  0  0  0  0  0  0  0  0
    7.4020   -0.4580   21.0370 N   0  0  0  0  0  0  0  0  0  0  0  0
    6.6960    0.0510   19.9280 C   0  0  2  0  0  0  0  0  0  0  0  0
    7.2530   -0.0360   18.6530 C   0  0  0  0  0  0  0  0  0  0  0  0
    6.7460    0.5810   17.5820 N   0  0  0  0  0  0  0  0  0  0  0  0
    5.6280    1.2910   17.7560 C   0  0  0  0  0  0  0  0  0  0  0  0
    4.9750    1.4080   18.9710 C   0  0  0  0  0  0  0  0  0  0  0  0
    5.5200    0.7770   20.0740 C   0  0  0  0  0  0  0  0  0  0  0  0
    9.1360   -0.7650   22.6920 C   0  0  0  0  0  0  0  0  0  0  0  0
   10.5870   -0.6060   22.7830 N   0  0  0  0  0  0  0  0  0  0  0  0
   11.2530   -1.9140   22.7180 C   0  0  0  0  0  0  0  0  0  0  0  0
   12.7530   -1.7600   22.5790 C   0  0  0  0  0  0  0  0  0  0  0  0
   13.3200   -0.9030   23.7010 C   0  0  0  0  0  0  0  0  0  0  0  0
   12.5500    0.4070   23.8700 C   0  0  0  0  0  0  0  0  0  0  0  0
   11.0450    0.1650   23.9600 C   0  0  1  0  0  0  0  0  0  0  0  0
   10.2420    1.4300   24.2800 C   0  0  0  0  0  0  0  0  0  0  0  0
   10.7120    2.7310   23.6510 C   0  0  0  0  0  0  0  0  0  0  0  0
   10.7790    3.7750   24.6800 N   0  0  0  0  0  0  0  0  0  0  0  0
   10.6450    5.3420   24.3000 S   0  0  1  0  0  0  0  0  0  0  0  0
   10.2620    6.0240   25.4980 O   0  0  0  0  0  0  0  0  0  0  0  0
   11.8630    5.7190   23.6540 O   0  0  0  0  0  0  0  0  0  0  0  0
    9.3410    5.4990   23.1420 C   0  0  0  0  0  0  0  0  0  0  0  0
  2  1  1  0
  3  2  1  0
  4  3  1  1
  5  4  1  0
  6  5  1  0
  7  6  1  0
  8  7  1  0
  9  8  1  0
  9  4  1  0
 10  2  1  0
 11 10  1  0
 12 11  1  0
 13 12  1  0
 14 13  1  0
 15 14  1  0
 16 11  1  0
 16 15  1  0
 16 17  1  6
 18 17  1  0
 19 18  1  0
 20 19  1  0
 21 20  1  0
 22 20  1  0
 20 23  1  6
M  END
$$$$
