
     RDKit          3D

 27 29  0  0  0  0  0  0  0  0999 V2000
    8.7720    1.0030   20.8410 O   0  0  0  0  0  0  0  0  0  0  0  0
    8.2750   -0.0200   21.2920 C   0  0  0  0  0  0  0  0  0  0  0  0
    7.1280   -0.5540   20.8180 N   0  0  0  0  0  0  0  0  0  0  0  0
    6.3920    0.0210   19.7450 C   0  0  1  0  0  0  0  0  0  0  0  0
    5.2740    0.8300   20.0210 C   0  0  1  0  0  0  0  0  0  0  0  0
    4.7760    1.0510   21.4270 C   0  0  0  0  0  0  0  0  0  0  0  0
    4.6740    1.4790   18.9480 C   0  0  0  0  0  0  0  0  0  0  0  0
    5.1930    1.3230   17.6780 C   0  0  0  0  0  0  0  0  0  0  0  0
    6.2590    0.5570   17.4020 N   0  0  0  0  0  0  0  0  0  0  0  0
    6.8330   -0.0850   18.4260 C   0  0  0  0  0  0  0  0  0  0  0  0
    8.9050   -0.7580   22.4570 C   0  0  0  0  0  0  0  0  0  0  0  0
   10.2970   -0.2520   22.7750 C   0  0  1  0  0  0  0  0  0  0  0  0
   11.3920   -1.0960   22.6470 C   0  0  0  0  0  0  0  0  0  0  0  0
   12.6600   -0.6010   22.8680 C   0  0  2  0  0  0  0  0  0  0  0  0
   14.0110   -1.6960   22.8120 Cl  0  0  0  0  0  0  0  0  0  0  0  0
   12.8840    0.7220   23.1960 C   0  0  0  0  0  0  0  0  0  0  0  0
   10.5100    1.0760   23.1380 C   0  0  0  0  0  0  0  0  0  0  0  0
   11.7950    1.5860   23.3420 C   0  0  0  0  0  0  0  0  0  0  0  0
   12.0060    3.0140   23.7220 C   0  0  2  0  0  0  0  0  0  0  0  0
   13.1730    3.6620   23.3070 C   0  0  0  0  0  0  0  0  0  0  0  0
   13.4650    4.9550   23.7200 C   0  0  0  0  0  0  0  0  0  0  0  0
   11.1450    3.7480   24.5350 C   0  0  1  0  0  0  0  0  0  0  0  0
   10.0330    3.1670   25.0170 F   0  0  0  0  0  0  0  0  0  0  0  0
   11.4210    5.0410   24.9210 C   0  0  0  0  0  0  0  0  0  0  0  0
   10.5260    5.7090   25.6760 F   0  0  0  0  0  0  0  0  0  0  0  0
   12.6070    5.6790   24.5550 C   0  0  1  0  0  0  0  0  0  0  0  0
   12.9970    7.0410   25.0750 C   0  0  0  0  0  0  0  0  0  0  0  0
  2  1  1  0
  3  2  1  0
  4  3  1  1
  5  4  1  0
  5  6  1  1
  7  5  1  0
  8  7  1  0
  9  8  1  0
 10  9  1  0
 10  4  1  0
 11  2  1  0
 12 11  1  6
 13 12  1  0
 14 13  1  0
 14 15  1  1
 16 14  1  0
 17 12  1  0
 18 17  1  0
 18 16  1  0
 19 18  1  1
 20 19  1  0
 21 20  1  0
 22 19  1  0
 22 23  1  1
 24 22  1  0
 25 24  1  0
 26 24  1  0
 26 21  1  0
 26 27  1  1
M  END
$$$$
