
     RDKit          3D

  7  7  0  0  0  0  0  0  0  0999 V2000
   24.6540   -7.8050    5.1700 C   0  0  2  0  0  0  0  0  0  0  0  0
   24.7950   -7.3020    3.8870 O   0  0  0  0  0  0  0  0  0  0  0  0
   23.5800   -8.9180    5.1840 C   0  0  0  0  0  0  0  0  0  0  0  0
   23.7810   -6.8700    6.0370 C   0  0  0  0  0  0  0  0  0  0  0  0
   21.3720   -7.6080    5.4610 O   0  0  0  0  0  0  0  0  0  0  0  0
   22.3690   -8.4440    7.4680 O   0  0  0  0  0  0  0  0  0  0  0  0
   22.5280   -7.9970    6.1570 S   0  0  1  0  0  0  0  0  0  0  0  0
  1  2  1  6
  3  1  1  0
  4  1  1  0
  7  5  2  0
  7  3  1  6
  7  6  2  0
  7  4  1  0
M  END
