
     RDKit          3D

 29 32  0  0  0  0  0  0  0  0999 V2000
    9.0670    1.6030   21.1930 O   0  0  0  0  0  0  0  0  0  0  0  0
    8.9600    0.5180   21.7420 C   0  0  0  0  0  0  0  0  0  0  0  0
    8.3020   -0.6580   21.0190 C   0  0  0  0  0  0  0  0  0  0  0  0
    7.4200   -0.1900   19.9740 N   0  0  0  0  0  0  0  0  0  0  0  0
    6.2400    0.4830   20.0780 C   0  0  0  0  0  0  0  0  0  0  0  0
    5.4270    0.8300   21.1470 C   0  0  0  0  0  0  0  0  0  0  0  0
    4.2910    1.5820   20.8710 C   0  0  0  0  0  0  0  0  0  0  0  0
    3.9840    1.9630   19.5680 C   0  0  0  0  0  0  0  0  0  0  0  0
    4.8050    1.6100   18.5070 C   0  0  0  0  0  0  0  0  0  0  0  0
    5.9440    0.8560   18.7710 C   0  0  0  0  0  0  0  0  0  0  0  0
    6.9360    0.3820   17.9420 N   0  0  0  0  0  0  0  0  0  0  0  0
    7.8090   -0.2520   18.6750 N   0  0  0  0  0  0  0  0  0  0  0  0
    9.3780    0.3030   23.0230 N   0  0  0  0  0  0  0  0  0  0  0  0
    9.3330   -0.9620   23.6740 C   0  0  0  0  0  0  0  0  0  0  0  0
    8.4600   -1.1720   24.7330 C   0  0  0  0  0  0  0  0  0  0  0  0
    8.3670   -2.4180   25.3260 C   0  0  0  0  0  0  0  0  0  0  0  0
   10.1250   -2.0110   23.2220 C   0  0  0  0  0  0  0  0  0  0  0  0
   10.0170   -3.2620   23.7960 C   0  0  0  0  0  0  0  0  0  0  0  0
    9.1400   -3.4900   24.8640 C   0  0  0  0  0  0  0  0  0  0  0  0
    9.0350   -4.7380   25.4370 N   0  0  0  0  0  0  0  0  0  0  0  0
   10.1500   -5.6640   25.3900 C   0  0  0  0  0  0  0  0  0  0  0  0
    8.1160   -4.9920   26.5370 C   0  0  0  0  0  0  0  0  0  0  0  0
    9.8900    1.4390   23.7990 C   0  0  0  0  0  0  0  0  0  0  0  0
   11.3120    1.8040   23.4460 C   0  0  0  0  0  0  0  0  0  0  0  0
   11.5880    2.9400   22.6960 C   0  0  0  0  0  0  0  0  0  0  0  0
   12.8840    3.2290   22.2990 C   0  0  0  0  0  0  0  0  0  0  0  0
   13.9200    2.3840   22.6470 C   0  0  0  0  0  0  0  0  0  0  0  0
   13.6620    1.2600   23.4100 C   0  0  0  0  0  0  0  0  0  0  0  0
   12.3670    0.9750   23.8130 C   0  0  0  0  0  0  0  0  0  0  0  0
  2  1  2  0
  3  2  1  0
  4  3  1  0
  5  4  1  0
  6  5  2  0
  7  6  1  0
  8  7  2  0
  9  8  1  0
 10  9  2  0
 10  5  1  0
 11 10  1  0
 12 11  2  0
 12  4  1  0
 13  2  1  0
 14 13  1  0
 15 14  2  0
 16 15  1  0
 17 14  1  0
 18 17  2  0
 19 18  1  0
 19 16  2  0
 20 19  1  0
 21 20  1  0
 22 20  1  0
 23 13  1  0
 24 23  1  0
 25 24  2  0
 26 25  1  0
 27 26  2  0
 28 27  1  0
 29 28  2  0
 29 24  1  0
M  END
