
     RDKit          3D

 16 17  0  0  0  0  0  0  0  0999 V2000
    6.8780   -2.7290   20.9330 N   0  0  0  0  0  0  0  0  0  0  0  0
    7.1490   -2.5370   18.4850 C   0  0  0  0  0  0  0  0  0  0  0  0
    5.8050   -4.1690   19.5750 O   0  0  0  0  0  0  0  0  0  0  0  0
    7.7640   -6.0450   28.4280 Cl  0  0  0  0  0  0  0  0  0  0  0  0
    6.5460   -3.1980   19.7110 C   0  0  0  0  0  0  0  0  0  0  0  0
    8.4770   -2.6320   23.3100 N   0  0  0  0  0  0  0  0  0  0  0  0
    6.4410   -3.3750   22.1660 C   0  0  0  0  0  0  0  0  0  0  0  0
    7.6500   -3.7930   22.9680 C   0  0  0  0  0  0  0  0  0  0  0  0
    9.6410   -3.0380   24.1190 C   0  0  0  0  0  0  0  0  0  0  0  0
    9.3430   -4.1270   25.1040 C   0  0  0  0  0  0  0  0  0  0  0  0
    9.7990   -5.4390   25.0700 C   0  0  0  0  0  0  0  0  0  0  0  0
    9.4830   -6.1680   26.2400 C   0  0  0  0  0  0  0  0  0  0  0  0
    8.5860   -5.4680   27.0370 C   0  0  0  0  0  0  0  0  0  0  0  0
    8.9020   -1.9650   22.0750 C   0  0  0  0  0  0  0  0  0  0  0  0
    7.7200   -1.5640   21.2190 C   0  0  0  0  0  0  0  0  0  0  0  0
    8.3230   -3.8670   26.4750 S   0  0  0  0  0  0  0  0  0  0  0  0
  5  3  2  0
  5  2  1  0
  5  1  1  0
  7  1  1  0
  8  7  1  0
  8  6  1  0
  9  6  1  0
 10  9  1  0
 11 10  2  0
 12 11  1  0
 13 12  2  0
 13  4  1  0
 14  6  1  0
 15  1  1  0
 15 14  1  0
 16 13  1  0
 16 10  1  0
M  END
