
     RDKit          3D

 22 24  0  0  0  0  0  0  0  0999 V2000
    6.4070    0.5220   17.6190 N   0  0  0  0  0  0  0  0  0  0  0  0
    5.0070    0.8960   21.6690 C   0  0  0  0  0  0  0  0  0  0  0  0
    5.7050    1.8250   22.4840 O   0  0  0  0  0  0  0  0  0  0  0  0
   13.8280   -1.6840   21.1180 Cl  0  0  0  0  0  0  0  0  0  0  0  0
    5.5600    0.8300   20.2670 C   0  0  2  0  0  0  0  0  0  0  0  0
    7.6250   -0.3910   20.8990 N   0  0  0  0  0  0  0  0  0  0  0  0
    9.2490    1.1090   21.2850 O   0  0  0  0  0  0  0  0  0  0  0  0
    4.8690    1.4190   19.2170 C   0  0  0  0  0  0  0  0  0  0  0  0
   10.2380    0.9920   24.8890 O   0  0  0  0  0  0  0  0  0  0  0  0
    5.3370    1.2590   17.9280 C   0  0  0  0  0  0  0  0  0  0  0  0
    7.0550   -0.0720   18.6220 C   0  0  0  0  0  0  0  0  0  0  0  0
    6.7120    0.0930   19.9610 C   0  0  2  0  0  0  0  0  0  0  0  0
    8.6270    0.1090   21.6230 C   0  0  2  0  0  0  0  0  0  0  0  0
    8.9990   -0.7020   22.8660 C   0  0  2  0  0  0  0  0  0  0  0  0
    8.2290   -0.1160   24.0690 C   0  0  0  0  0  0  0  0  0  0  0  0
    8.8610    1.1820   24.5060 C   0  0  0  0  0  0  0  0  0  0  0  0
   11.0180    0.3570   23.9530 C   0  0  0  0  0  0  0  0  0  0  0  0
   12.3750    0.6490   24.0010 C   0  0  0  0  0  0  0  0  0  0  0  0
   13.2360    0.0380   23.1080 C   0  0  0  0  0  0  0  0  0  0  0  0
   12.7360   -0.8820   22.2140 C   0  0  0  0  0  0  0  0  0  0  0  0
   11.3930   -1.1930   22.1670 C   0  0  0  0  0  0  0  0  0  0  0  0
   10.5010   -0.5460   23.0200 C   0  0  2  0  0  0  0  0  0  0  0  0
  3  2  1  0
  5  2  1  6
  8  5  1  0
 10  8  1  0
 10  1  1  0
 11  1  1  0
 12 11  1  0
 12  6  1  1
 12  5  1  0
 13  7  1  6
 13  6  1  0
 14 13  1  0
 14 15  1  1
 16 15  1  0
 16  9  1  0
 17  9  1  0
 18 17  1  0
 19 18  1  0
 20  4  1  0
 20 19  1  0
 21 20  1  0
 22 14  1  0
 22 21  1  6
 22 17  1  0
M  END
$$$$
