
     RDKit          3D

 22 24  0  0  0  0  0  0  0  0999 V2000
    9.3510   -0.3290   22.8110 N   0  0  0  0  0  0  0  0  0  0  0  0
    8.8980   -1.4850   23.5850 C   0  0  0  0  0  0  0  0  0  0  0  0
    9.0170    1.2000   21.1910 O   0  0  0  0  0  0  0  0  0  0  0  0
   13.7570   -2.6860   26.0670 Cl  0  0  0  0  0  0  0  0  0  0  0  0
   10.5140    0.3650   23.3530 C   0  0  0  0  0  0  0  0  0  0  0  0
    7.1700   -0.2330   19.8400 N   0  0  0  0  0  0  0  0  0  0  0  0
   11.7290   -0.5310   23.3680 C   0  0  0  0  0  0  0  0  0  0  0  0
    7.6200   -0.3090   18.5620 N   0  0  0  0  0  0  0  0  0  0  0  0
   12.3400   -0.9130   22.1790 C   0  0  0  0  0  0  0  0  0  0  0  0
    6.7790    0.3050   17.7810 N   0  0  0  0  0  0  0  0  0  0  0  0
   13.3890   -1.8210   22.1790 C   0  0  0  0  0  0  0  0  0  0  0  0
   13.8410   -2.3660   23.3760 C   0  0  0  0  0  0  0  0  0  0  0  0
   13.2330   -1.9770   24.5550 C   0  0  0  0  0  0  0  0  0  0  0  0
   12.1990   -1.0600   24.5690 C   0  0  0  0  0  0  0  0  0  0  0  0
    8.8060    0.0820   21.6440 C   0  0  0  0  0  0  0  0  0  0  0  0
    7.8860   -0.8900   20.9120 C   0  0  0  0  0  0  0  0  0  0  0  0
    5.7590    0.8060   18.5560 C   0  0  0  0  0  0  0  0  0  0  0  0
    4.6690    1.6110   18.2300 C   0  0  0  0  0  0  0  0  0  0  0  0
    3.8570    2.0700   19.2560 C   0  0  0  0  0  0  0  0  0  0  0  0
    4.1110    1.7270   20.5840 C   0  0  0  0  0  0  0  0  0  0  0  0
    5.1840    0.9100   20.9170 C   0  0  0  0  0  0  0  0  0  0  0  0
    6.0010    0.4670   19.8830 C   0  0  0  0  0  0  0  0  0  0  0  0
  2  1  1  0
  5  1  1  0
  7  5  1  0
  8  6  1  0
  9  7  2  0
 10  8  2  0
 11  9  1  0
 12 11  2  0
 13 12  1  0
 13  4  1  0
 14 13  2  0
 14  7  1  0
 15  3  2  0
 15  1  1  0
 16 15  1  0
 16  6  1  0
 17 10  1  0
 18 17  2  0
 19 18  1  0
 20 19  2  0
 21 20  1  0
 22 21  2  0
 22 17  1  0
 22  6  1  0
M  END
