
     RDKit          3D

 21 24  0  0  0  0  0  0  0  0999 V2000
    8.7650    1.2640   21.1510 O   0  0  0  0  0  0  0  0  0  0  0  0
    8.3620    0.1200   21.3280 C   0  0  0  0  0  0  0  0  0  0  0  0
    8.7980   -0.7300   22.5230 C   0  0  2  0  0  0  0  0  0  0  0  0
    8.3110   -0.0740   23.8110 C   0  0  0  0  0  0  0  0  0  0  0  0
    9.4580    0.6480   24.3380 O   0  0  0  0  0  0  0  0  0  0  0  0
   10.3000   -0.6700   22.7020 C   0  0  2  0  0  0  0  0  0  0  0  0
   10.6010    0.2500   23.6840 C   0  0  2  0  0  0  0  0  0  0  0  0
   11.9040    0.6150   23.9780 C   0  0  0  0  0  0  0  0  0  0  0  0
   12.9310    0.0090   23.2760 C   0  0  0  0  0  0  0  0  0  0  0  0
   11.3320   -1.2960   22.0190 C   0  0  0  0  0  0  0  0  0  0  0  0
   12.6320   -0.9570   22.3290 C   0  0  2  0  0  0  0  0  0  0  0  0
   13.9250   -1.8400   21.5860 Cl  0  0  0  0  0  0  0  0  0  0  0  0
    7.4800   -0.4850   20.4900 N   0  0  0  0  0  0  0  0  0  0  0  0
    6.9630    0.0480   19.3440 C   0  0  0  0  0  0  0  0  0  0  0  0
    5.7280    0.6500   19.3080 N   0  0  0  0  0  0  0  0  0  0  0  0
    5.6010    1.0690   18.0090 C   0  0  0  0  0  0  0  0  0  0  0  0
    6.6550    0.7620   17.3100 N   0  0  0  0  0  0  0  0  0  0  0  0
    7.5340    0.1040   18.1540 N   0  0  0  0  0  0  0  0  0  0  0  0
    4.7850    0.8520   20.4310 C   0  0  1  0  0  0  0  0  0  0  0  0
    5.1380    1.8470   21.4820 C   0  0  0  0  0  0  0  0  0  0  0  0
    4.0400    2.1400   20.5070 C   0  0  0  0  0  0  0  0  0  0  0  0
  2  1  1  0
  3  2  1  6
  4  3  1  0
  5  4  1  0
  6  3  1  0
  7  6  1  0
  7  5  1  0
  7  8  1  1
  9  8  1  0
  6 10  1  6
 11 10  1  0
 11  9  1  0
 11 12  1  1
 13  2  1  0
 14 13  1  0
 15 14  1  0
 16 15  1  0
 17 16  1  0
 18 17  1  0
 18 14  1  0
 19 15  1  6
 20 19  1  0
 21 20  1  0
 21 19  1  0
M  END
$$$$
