
     RDKit          3D

 19 21  0  0  0  0  0  0  0  0999 V2000
   22.8060  -25.1330   15.1480 N   0  0  0  0  0  0  0  0  0  0  0  0
   19.7210  -19.9140   16.4930 C   0  0  0  0  0  0  0  0  0  0  0  0
   21.5840  -19.9850   13.5110 O   0  0  0  0  0  0  0  0  0  0  0  0
   25.3340  -27.8410   19.6570 Cl  0  0  0  0  0  0  0  0  0  0  0  0
   20.4650  -20.7330   15.4570 C   0  0  1  0  0  0  0  0  0  0  0  0
   22.4370  -19.3660   15.4710 O   0  0  0  0  0  0  0  0  0  0  0  0
   21.5480  -19.9730   14.7180 C   0  0  0  0  0  0  0  0  0  0  0  0
   21.0990  -21.9730   16.0660 C   0  0  0  0  0  0  0  0  0  0  0  0
   21.2590  -22.1000   17.4470 C   0  0  0  0  0  0  0  0  0  0  0  0
   21.9190  -23.1800   18.0040 C   0  0  0  0  0  0  0  0  0  0  0  0
   22.4240  -24.1700   17.1690 C   0  0  0  0  0  0  0  0  0  0  0  0
   22.2200  -24.0570   15.7790 C   0  0  0  0  0  0  0  0  0  0  0  0
   21.5680  -22.9720   15.2180 C   0  0  0  0  0  0  0  0  0  0  0  0
   23.4110  -25.9300   16.0970 C   0  0  1  0  0  0  0  0  0  0  0  0
   24.1750  -27.0740   15.9250 C   0  0  0  0  0  0  0  0  0  0  0  0
   24.7580  -27.6610   17.0330 C   0  0  0  0  0  0  0  0  0  0  0  0
   24.5630  -27.1070   18.2840 C   0  0  0  0  0  0  0  0  0  0  0  0
   23.7900  -25.9780   18.4770 C   0  0  0  0  0  0  0  0  0  0  0  0
   23.2040  -25.3680   17.3720 C   0  0  1  0  0  0  0  0  0  0  0  0
  5  2  1  1
  7  5  1  0
  7  3  1  0
  7  6  1  0
  8  5  1  0
  9  8  1  0
 10  9  1  0
 11 10  1  0
 12  1  1  0
 12 11  1  0
 13  8  1  0
 13 12  1  0
 14  1  1  0
 14 15  1  6
 16 15  1  0
 17 16  1  0
 17  4  1  0
 18 17  1  0
 19 14  1  0
 19 18  1  6
 19 11  1  0
M  END
$$$$
