
     RDKit          3D

 17 18  0  0  0  0  0  0  0  0999 V2000
    7.0290   -4.4590   20.9110 N   0  0  0  0  0  0  0  0  0  0  0  0
    7.8340   -2.6660   19.4740 C   0  0  0  0  0  0  0  0  0  0  0  0
    5.7450   -3.7860   19.1850 O   0  0  0  0  0  0  0  0  0  0  0  0
    6.7720   -3.6680   19.8590 C   0  0  0  0  0  0  0  0  0  0  0  0
    7.9410   -4.0940   21.8830 N   0  0  0  0  0  0  0  0  0  0  0  0
    6.7470   -2.4470   22.8310 O   0  0  0  0  0  0  0  0  0  0  0  0
    7.8430   -2.9210   22.5320 C   0  0  0  0  0  0  0  0  0  0  0  0
    9.0810   -2.1630   22.8110 C   0  0  0  0  0  0  0  0  0  0  0  0
   10.2810   -2.1270   22.0350 C   0  0  0  0  0  0  0  0  0  0  0  0
   11.2240   -1.2280   22.5840 C   0  0  0  0  0  0  0  0  0  0  0  0
   12.5800   -0.9340   22.0280 C   0  0  0  0  0  0  0  0  0  0  0  0
   13.4300   -0.1380   23.0060 C   0  0  0  0  0  0  0  0  0  0  0  0
   12.6690    0.9630   23.6470 C   0  0  0  0  0  0  0  0  0  0  0  0
   11.5560    0.4100   24.5050 C   0  0  0  0  0  0  0  0  0  0  0  0
   10.7870   -0.6080   23.7150 C   0  0  0  0  0  0  0  0  0  0  0  0
    9.2010   -1.0980   24.1920 S   0  0  0  0  0  0  0  0  0  0  0  0
    9.0340   -3.3660   18.2940 S   0  0  0  0  0  0  0  0  0  0  0  0
  4  3  2  0
  4  2  1  0
  4  1  1  0
  5  1  1  0
  7  6  2  0
  7  5  1  0
  8  7  1  0
  9  8  2  0
 10  9  1  0
 11 10  1  0
 12 11  1  0
 13 12  1  0
 14 13  1  0
 15 14  1  0
 15 10  2  0
 16 15  1  0
 16  8  1  0
  2 17  1  0
M  END
