
     RDKit          3D

 17 18  0  0  0  0  0  0  0  0999 V2000
    6.9450   -2.6420   21.0050 N   0  0  0  0  0  0  0  0  0  0  0  0
    7.3590   -2.5030   18.5650 C   0  0  0  0  0  0  0  0  0  0  0  0
    5.8360   -4.0010   19.6070 O   0  0  0  0  0  0  0  0  0  0  0  0
    6.6450   -3.0950   19.7670 C   0  0  0  0  0  0  0  0  0  0  0  0
    6.4770   -3.3070   22.2180 C   0  0  0  0  0  0  0  0  0  0  0  0
    7.8190   -1.5180   21.3380 C   0  0  0  0  0  0  0  0  0  0  0  0
    8.9970   -2.0090   22.1510 C   0  0  0  0  0  0  0  0  0  0  0  0
    9.7210   -3.1610   24.1570 C   0  0  0  0  0  0  0  0  0  0  0  0
    9.3930   -4.2440   25.1410 C   0  0  0  0  0  0  0  0  0  0  0  0
    9.7020   -5.6000   25.0300 C   0  0  0  0  0  0  0  0  0  0  0  0
    9.3800   -6.3390   26.1920 C   0  0  0  0  0  0  0  0  0  0  0  0
    8.5940   -5.5720   27.0710 C   0  0  0  0  0  0  0  0  0  0  0  0
    7.6640   -3.7970   23.0130 C   0  0  0  0  0  0  0  0  0  0  0  0
    8.5580   -2.6910   23.3750 N   0  0  0  0  0  0  0  0  0  0  0  0
    8.5250   -3.9250   26.6080 S   0  0  0  0  0  0  0  0  0  0  0  0
    7.6730   -6.1600   28.5910 Br  0  0  0  0  0  0  0  0  0  0  0  0
    8.9430   -3.3440   18.2830 S   0  0  0  0  0  0  0  0  0  0  0  0
  4  3  2  0
  4  2  1  0
  4  1  1  0
  5  1  1  0
  6  1  1  0
  7  6  1  0
  9  8  1  0
 10  9  2  0
 11 10  1  0
 12 11  2  0
 13  5  1  0
 14 13  1  0
 14  8  1  0
 14  7  1  0
 15 12  1  0
 15  9  1  0
 16 12  1  0
  2 17  1  0
M  END
