
     RDKit          3D

 20 22  0  0  0  0  0  0  0  0999 V2000
    7.6190   -0.8600   20.8250 N   0  0  0  0  0  0  0  0  0  0  0  0
   12.7360   -0.8640   22.2620 C   0  0  0  0  0  0  0  0  0  0  0  0
    8.8510    1.0010   21.2760 O   0  0  0  0  0  0  0  0  0  0  0  0
   13.8840   -1.7070   21.2600 Cl  0  0  0  0  0  0  0  0  0  0  0  0
   13.1710    0.1660   23.0700 C   0  0  0  0  0  0  0  0  0  0  0  0
    6.5040    0.2370   17.5640 N   0  0  0  0  0  0  0  0  0  0  0  0
   12.2530    0.7960   23.8950 C   0  0  0  0  0  0  0  0  0  0  0  0
    5.9690    0.5120   19.7280 N   0  0  0  0  0  0  0  0  0  0  0  0
   10.9210    0.4120   23.8790 C   0  0  0  0  0  0  0  0  0  0  0  0
   10.4780   -0.5840   23.0200 C   0  0  1  0  0  0  0  0  0  0  0  0
    9.0010   -0.8380   22.8250 C   0  0  0  0  0  0  0  0  0  0  0  0
    8.4880   -0.1310   21.5850 C   0  0  0  0  0  0  0  0  0  0  0  0
    7.0300   -0.3620   19.6670 C   0  0  0  0  0  0  0  0  0  0  0  0
    7.3260   -0.5160   18.3530 C   0  0  0  0  0  0  0  0  0  0  0  0
    5.6790    0.8550   18.4110 C   0  0  0  0  0  0  0  0  0  0  0  0
    4.6150    1.7560   18.1770 C   0  0  0  0  0  0  0  0  0  0  0  0
    3.9150    2.2570   19.2350 C   0  0  0  0  0  0  0  0  0  0  0  0
    4.2380    1.8820   20.5640 C   0  0  0  0  0  0  0  0  0  0  0  0
    5.2530    1.0210   20.7960 C   0  0  0  0  0  0  0  0  0  0  0  0
   11.4090   -1.2450   22.2240 C   0  0  0  0  0  0  0  0  0  0  0  0
  4  2  1  0
  5  2  1  0
  7  5  1  0
  9  7  1  0
 10  9  1  0
 10 11  1  6
 12  3  1  0
 12  1  1  0
 12 11  1  0
 13  8  1  0
 13  1  1  0
 14 13  1  0
 14  6  1  0
 15  8  1  0
 15  6  1  0
 16 15  1  0
 17 16  1  0
 18 17  1  0
 19 18  1  0
 19  8  1  0
 20 10  1  0
 20  2  1  0
M  END
$$$$
