
     RDKit          3D

  7  7  0  0  0  0  0  0  0  0999 V2000
   13.0130  -27.3280    3.7990 N   0  0  0  0  0  0  0  0  0  0  0  0
   11.9030  -26.6210    3.4010 C   0  0  0  0  0  0  0  0  0  0  0  0
   10.7920  -27.3250    3.0840 O   0  0  0  0  0  0  0  0  0  0  0  0
   11.8510  -25.2140    3.2740 C   0  0  0  0  0  0  0  0  0  0  0  0
   13.0140  -24.5120    3.5730 C   0  0  0  0  0  0  0  0  0  0  0  0
   14.1700  -25.2020    3.9760 C   0  0  0  0  0  0  0  0  0  0  0  0
   14.1210  -26.5970    4.0730 C   0  0  0  0  0  0  0  0  0  0  0  0
  2  1  2  0
  3  2  1  0
  4  2  1  0
  5  4  2  0
  6  5  1  0
  7  1  1  0
  7  6  2  0
M  END
