
     RDKit          3D

 24 26  0  0  0  0  0  0  0  0999 V2000
    9.2790    0.9870   21.0500 O   0  0  0  0  0  0  0  0  0  0  0  0
    8.9610   -0.1860   21.2200 C   0  0  0  0  0  0  0  0  0  0  0  0
    7.8280   -0.7340   20.7240 N   0  0  0  0  0  0  0  0  0  0  0  0
    6.9370   -0.0980   19.8230 C   0  0  0  0  0  0  0  0  0  0  0  0
    7.1800   -0.0890   18.4480 C   0  0  0  0  0  0  0  0  0  0  0  0
    6.3970    0.5340   17.5620 N   0  0  0  0  0  0  0  0  0  0  0  0
    5.3180    1.1660   18.0330 C   0  0  0  0  0  0  0  0  0  0  0  0
    4.9870    1.2170   19.3730 C   0  0  0  0  0  0  0  0  0  0  0  0
    5.8020    0.5850   20.3070 C   0  0  0  0  0  0  0  0  0  0  0  0
    5.4900    0.6790   21.7780 C   0  0  0  0  0  0  0  0  0  0  0  0
    9.8430   -1.1510   21.9990 C   0  0  0  0  0  0  0  0  0  0  0  0
   10.1450   -0.7130   23.4430 C   0  0  2  0  0  0  0  0  0  0  0  0
   11.0920   -1.6020   24.2120 C   0  0  0  0  0  0  0  0  0  0  0  0
   12.3660   -1.2380   24.5610 C   0  0  0  0  0  0  0  0  0  0  0  0
   13.1890   -2.4860   25.4030 S   0  0  0  0  0  0  0  0  0  0  0  0
   11.8510   -3.5310   25.3260 C   0  0  0  0  0  0  0  0  0  0  0  0
   10.8020   -2.9260   24.6520 C   0  0  0  0  0  0  0  0  0  0  0  0
    8.8970   -0.3550   24.1670 N   0  0  0  0  0  0  0  0  0  0  0  0
    7.9870   -1.4760   24.4580 C   0  0  0  0  0  0  0  0  0  0  0  0
    6.6090   -0.9770   24.9030 C   0  0  0  0  0  0  0  0  0  0  0  0
    6.7200   -0.0350   26.0890 C   0  0  2  0  0  0  0  0  0  0  0  0
    5.4440    0.5540   26.3740 O   0  0  0  0  0  0  0  0  0  0  0  0
    7.7510    1.0540   25.8500 C   0  0  0  0  0  0  0  0  0  0  0  0
    9.0840    0.4690   25.3720 C   0  0  0  0  0  0  0  0  0  0  0  0
  2  1  2  0
  3  2  1  0
  4  3  1  0
  5  4  2  0
  6  5  1  0
  7  6  2  0
  8  7  1  0
  9  8  2  0
  9  4  1  0
 10  9  1  0
 11  2  1  0
 12 11  1  6
 13 12  1  0
 14 13  2  0
 15 14  1  0
 16 15  1  0
 17 16  2  0
 17 13  1  0
 18 12  1  0
 19 18  1  0
 20 19  1  0
 21 20  1  0
 21 22  1  6
 23 21  1  0
 24 23  1  0
 24 18  1  0
M  END
