
     RDKit          3D

 20 22  0  0  0  0  0  0  0  0999 V2000
    8.8080    0.6010   20.9010 O   0  0  0  0  0  0  0  0  0  0  0  0
    8.2280   -0.2670   21.5550 C   0  0  1  0  0  0  0  0  0  0  0  0
    8.9710   -1.2380   22.4510 C   0  0  0  0  0  0  0  0  0  0  0  0
   10.3900   -0.8050   22.7430 C   0  0  2  0  0  0  0  0  0  0  0  0
   10.6620    0.2810   23.5660 C   0  0  0  0  0  0  0  0  0  0  0  0
   11.9650    0.7250   23.7480 C   0  0  0  0  0  0  0  0  0  0  0  0
   13.0120    0.0930   23.0960 C   0  0  0  0  0  0  0  0  0  0  0  0
   11.4440   -1.4590   22.1250 C   0  0  0  0  0  0  0  0  0  0  0  0
   12.7270   -0.9890   22.2840 C   0  0  1  0  0  0  0  0  0  0  0  0
   14.0080   -1.7370   21.3690 Cl  0  0  0  0  0  0  0  0  0  0  0  0
    6.8850   -0.4080   21.6010 N   0  0  0  0  0  0  0  0  0  0  0  0
    5.9080    0.3770   20.9410 C   0  0  0  0  0  0  0  0  0  0  0  0
    5.9710    0.5220   19.5440 C   0  0  0  0  0  0  0  0  0  0  0  0
    6.7980    0.0800   18.4830 C   0  0  0  0  0  0  0  0  0  0  0  0
    6.3930    0.5570   17.3220 N   0  0  0  0  0  0  0  0  0  0  0  0
    5.2920    1.3220   17.5910 N   0  0  0  0  0  0  0  0  0  0  0  0
    4.9970    1.3240   18.9180 C   0  0  0  0  0  0  0  0  0  0  0  0
    3.9850    1.9510   19.6350 C   0  0  0  0  0  0  0  0  0  0  0  0
    3.9340    1.7790   21.0100 C   0  0  0  0  0  0  0  0  0  0  0  0
    4.8840    1.0060   21.6590 C   0  0  0  0  0  0  0  0  0  0  0  0
  2  1  1  1
  3  2  1  0
  4  3  1  6
  5  4  1  0
  6  5  1  0
  7  6  1  0
  8  4  1  0
  9  8  1  0
  9  7  1  0
  9 10  1  6
 11  2  1  0
 12 11  1  0
 13 12  1  0
 14 13  1  0
 15 14  1  0
 16 15  1  0
 17 16  1  0
 17 13  1  0
 18 17  1  0
 19 18  1  0
 20 19  1  0
 20 12  1  0
M  END
$$$$
