
     RDKit          3D

 18 19  0  0  0  0  0  0  0  0999 V2000
    6.4230    0.4690   17.3670 N   0  0  0  0  0  0  0  0  0  0  0  0
    4.7160    1.0610   21.2860 C   0  0  0  0  0  0  0  0  0  0  0  0
    8.7980    0.5980   21.0220 O   0  0  0  0  0  0  0  0  0  0  0  0
    5.2940    0.8120   19.9160 C   0  0  0  0  0  0  0  0  0  0  0  0
    6.9540   -0.7110   20.8180 N   0  0  0  0  0  0  0  0  0  0  0  0
    4.7880    1.4710   18.8020 C   0  0  0  0  0  0  0  0  0  0  0  0
    5.3790    1.2810   17.5690 C   0  0  0  0  0  0  0  0  0  0  0  0
    6.9060   -0.1870   18.4270 C   0  0  0  0  0  0  0  0  0  0  0  0
    6.3840   -0.0480   19.7140 C   0  0  0  0  0  0  0  0  0  0  0  0
    8.0700   -0.3010   21.4430 C   0  0  0  0  0  0  0  0  0  0  0  0
    8.3300   -0.9960   22.7640 C   0  0  0  0  0  0  0  0  0  0  0  0
    9.6860   -0.5840   23.2750 C   0  0  2  0  0  0  0  0  0  0  0  0
    9.8210    0.4100   24.2370 C   0  0  0  0  0  0  0  0  0  0  0  0
   11.0690    0.9270   24.5550 C   0  0  0  0  0  0  0  0  0  0  0  0
   12.2050    0.4420   23.9260 C   0  0  0  0  0  0  0  0  0  0  0  0
   12.0690   -0.5830   23.0060 C   0  0  2  0  0  0  0  0  0  0  0  0
   10.8310   -1.0910   22.6770 C   0  0  0  0  0  0  0  0  0  0  0  0
   13.7680   -1.4760   22.1830 I   0  0  0  0  0  0  0  0  0  0  0  0
  4  2  1  0
  6  4  1  0
  7  6  1  0
  7  1  1  0
  8  1  1  0
  9  4  1  0
  9  8  1  0
  9  5  1  0
 10  5  1  0
 10  3  1  0
 11 10  1  0
 12 11  1  6
 13 12  1  0
 14 13  1  0
 15 14  1  0
 16 15  1  0
 17 12  1  0
 17 16  1  0
 16 18  1  1
M  END
$$$$
