
     RDKit          3D

 19 20  0  0  0  0  0  0  0  0999 V2000
    6.5910    0.5810   17.5990 N   0  0  0  0  0  0  0  0  0  0  0  0
    4.8470    1.0830   21.5160 C   0  0  0  0  0  0  0  0  0  0  0  0
    9.1130    1.0290   21.1200 O   0  0  0  0  0  0  0  0  0  0  0  0
    5.4510    0.8740   20.1500 C   0  0  0  0  0  0  0  0  0  0  0  0
    7.3190   -0.3570   21.0920 N   0  0  0  0  0  0  0  0  0  0  0  0
    4.8390    1.3970   19.0150 C   0  0  0  0  0  0  0  0  0  0  0  0
   14.3680   -1.9240   20.5310 N   0  0  0  0  0  0  0  0  0  0  0  0
    5.4320    1.2240   17.7790 C   0  0  0  0  0  0  0  0  0  0  0  0
    7.1860    0.0700   18.6830 C   0  0  0  0  0  0  0  0  0  0  0  0
    6.6620    0.1880   19.9720 C   0  0  0  0  0  0  0  0  0  0  0  0
    8.4790    0.0940   21.5990 C   0  0  0  0  0  0  0  0  0  0  0  0
    8.9850   -0.6830   22.7990 C   0  0  0  0  0  0  0  0  0  0  0  0
   10.4700   -0.4510   22.9520 C   0  0  0  0  0  0  0  0  0  0  0  0
   10.9610    0.3720   23.9590 C   0  0  0  0  0  0  0  0  0  0  0  0
   12.3170    0.6350   24.0630 C   0  0  0  0  0  0  0  0  0  0  0  0
   13.2040    0.0760   23.1590 C   0  0  0  0  0  0  0  0  0  0  0  0
   12.7290   -0.7660   22.1560 C   0  0  0  0  0  0  0  0  0  0  0  0
   13.6490   -1.3970   21.2450 C   0  0  0  0  0  0  0  0  0  0  0  0
   11.3640   -1.0260   22.0520 C   0  0  0  0  0  0  0  0  0  0  0  0
  4  2  1  0
  6  4  2  0
  8  6  1  0
  8  1  2  0
  9  1  1  0
 10  9  2  0
 10  5  1  0
 10  4  1  0
 11  5  1  0
 11  3  2  0
 12 11  1  0
 13 12  1  0
 14 13  2  0
 15 14  1  0
 16 15  2  0
 17 16  1  0
 18  7  3  0
 18 17  1  0
 19 13  1  0
 19 17  2  0
M  END
