
     RDKit          3D

  7  6  0  0  0  0  0  0  0  0999 V2000
    6.3290   -5.0120   16.9120 N   0  0  0  0  0  0  0  0  0  0  0  0
    7.7410   -5.3420   16.8080 C   0  0  2  0  0  0  0  0  0  0  0  0
    7.9660   -6.7140   16.1630 C   0  0  0  0  0  0  0  0  0  0  0  0
    7.2180   -7.6640   16.3560 O   0  0  0  0  0  0  0  0  0  0  0  0
    8.4490   -5.3220   18.1620 C   0  0  0  0  0  0  0  0  0  0  0  0
    8.3050   -3.7170   18.8690 S   0  0  0  0  0  0  0  0  0  0  0  0
    7.0570   -3.8710   19.6990 O   0  0  0  0  0  0  0  0  0  0  0  0
  2  1  1  1
  3  2  1  0
  4  3  1  0
  5  2  1  0
  6  5  1  0
  7  6  1  0
M  END
$$$$
