
     RDKit          3D

 17 19  0  0  0  0  0  0  0  0999 V2000
    6.6130    0.3330   17.7770 N   0  0  0  0  0  0  0  0  0  0  0  0
    5.3810    1.0160   21.8580 C   0  0  0  0  0  0  0  0  0  0  0  0
    9.3330    1.3430   21.0560 O   0  0  0  0  0  0  0  0  0  0  0  0
    5.8000    0.7290   20.4370 C   0  0  0  0  0  0  0  0  0  0  0  0
    7.8540   -0.3670   21.1810 N   0  0  0  0  0  0  0  0  0  0  0  0
    5.0160    1.1480   19.3670 C   0  0  0  0  0  0  0  0  0  0  0  0
    5.4530    0.9320   18.0750 C   0  0  0  0  0  0  0  0  0  0  0  0
    7.3690   -0.0910   18.7940 C   0  0  0  0  0  0  0  0  0  0  0  0
    7.0120    0.0750   20.1340 C   0  0  0  0  0  0  0  0  0  0  0  0
    8.9590    0.2950   21.5680 C   0  0  0  0  0  0  0  0  0  0  0  0
    9.7320   -0.3540   22.7020 C   0  0  0  0  0  0  0  0  0  0  0  0
   11.2190   -0.0010   22.6310 C   0  0  2  0  0  0  0  0  0  0  0  0
   12.0690   -1.0210   21.8730 C   0  0  0  0  0  0  0  0  0  0  0  0
   12.5380   -1.9930   22.9570 C   0  0  1  0  0  0  0  0  0  0  0  0
   13.7940   -1.6620   23.7000 C   0  0  0  0  0  0  0  0  0  0  0  0
   12.4530   -1.2940   24.2490 C   0  0  1  0  0  0  0  0  0  0  0  0
   11.9230    0.1150   23.9850 C   0  0  0  0  0  0  0  0  0  0  0  0
  4  2  1  0
  6  4  1  0
  7  6  1  0
  7  1  1  0
  8  1  1  0
  9  8  1  0
  9  5  1  0
  9  4  1  0
 10  5  1  0
 10  3  1  0
 11 10  1  0
 12 11  1  1
 13 12  1  0
 14 13  1  6
 15 14  1  0
 16 15  1  6
 16 14  1  0
 17 16  1  0
 17 12  1  0
M  END
$$$$
