
     RDKit          3D

 34 38  0  0  0  0  0  0  0  0999 V2000
    9.3990    1.0720   21.2000 O   0  0  0  0  0  0  0  0  0  0  0  0
    9.0960    0.0340   21.7740 C   0  0  0  0  0  0  0  0  0  0  0  0
    8.1970   -1.0010   21.0980 C   0  0  0  0  0  0  0  0  0  0  0  0
    7.3780   -0.4030   20.0660 N   0  0  0  0  0  0  0  0  0  0  0  0
    7.8070   -0.4030   18.7780 N   0  0  0  0  0  0  0  0  0  0  0  0
    6.9540    0.2640   18.0500 N   0  0  0  0  0  0  0  0  0  0  0  0
    6.2130    0.2910   20.1720 C   0  0  0  0  0  0  0  0  0  0  0  0
    5.9490    0.7170   18.8740 C   0  0  0  0  0  0  0  0  0  0  0  0
    4.8340    1.5080   18.6160 C   0  0  0  0  0  0  0  0  0  0  0  0
    4.0020    1.8570   19.6670 C   0  0  0  0  0  0  0  0  0  0  0  0
    5.3840    0.6210   21.2330 C   0  0  0  0  0  0  0  0  0  0  0  0
    4.2730    1.4100   20.9580 C   0  0  0  0  0  0  0  0  0  0  0  0
    3.3380    1.8000   21.8810 O   0  0  0  0  0  0  0  0  0  0  0  0
    3.5090    1.3930   23.2400 C   0  0  0  0  0  0  0  0  0  0  0  0
    9.5640   -0.2770   23.0190 N   0  0  0  0  0  0  0  0  0  0  0  0
   10.6660    0.5200   23.5640 C   0  0  0  0  0  0  0  0  0  0  0  0
   11.9310   -0.2790   23.7580 C   0  0  0  0  0  0  0  0  0  0  0  0
   12.3950   -0.9120   22.6660 N   0  0  0  0  0  0  0  0  0  0  0  0
   13.3500   -1.8430   22.8460 C   0  0  0  0  0  0  0  0  0  0  0  0
   13.8840   -2.1640   24.0810 C   0  0  0  0  0  0  0  0  0  0  0  0
   13.4310   -1.4730   25.1810 C   0  0  0  0  0  0  0  0  0  0  0  0
   12.4460   -0.5100   25.0300 C   0  0  0  0  0  0  0  0  0  0  0  0
    9.0960   -1.3710   23.8190 C   0  0  0  0  0  0  0  0  0  0  0  0
    9.7140   -2.6200   23.7500 C   0  0  0  0  0  0  0  0  0  0  0  0
    9.2500   -3.6680   24.5270 C   0  0  0  0  0  0  0  0  0  0  0  0
    8.1680   -3.5050   25.3830 C   0  0  0  0  0  0  0  0  0  0  0  0
    7.5730   -2.2520   25.4640 C   0  0  0  0  0  0  0  0  0  0  0  0
    8.0230   -1.1940   24.6940 C   0  0  0  0  0  0  0  0  0  0  0  0
    7.6090   -4.6780   26.1620 C   0  0  2  0  0  0  0  0  0  0  0  0
    6.0820   -4.7680   26.0880 C   0  0  0  0  0  0  0  0  0  0  0  0
    5.5780   -5.9890   26.8380 C   0  0  0  0  0  0  0  0  0  0  0  0
    6.0340   -5.9620   28.2460 N   0  0  0  0  0  0  0  0  0  0  0  0
    7.5120   -5.9140   28.3390 C   0  0  0  0  0  0  0  0  0  0  0  0
    8.0530   -4.6850   27.6280 C   0  0  0  0  0  0  0  0  0  0  0  0
  2  1  2  0
  3  2  1  0
  4  3  1  0
  5  4  1  0
  6  5  2  0
  7  4  1  0
  8  7  2  0
  8  6  1  0
  9  8  1  0
 10  9  2  0
 11  7  1  0
 12 11  2  0
 12 10  1  0
 13 12  1  0
 14 13  1  0
 15  2  1  0
 16 15  1  0
 17 16  1  0
 18 17  2  0
 19 18  1  0
 20 19  2  0
 21 20  1  0
 22 21  2  0
 22 17  1  0
 23 15  1  0
 24 23  2  0
 25 24  1  0
 26 25  2  0
 27 26  1  0
 28 27  2  0
 28 23  1  0
 29 26  1  1
 30 29  1  0
 31 30  1  0
 32 31  1  0
 33 32  1  0
 34 33  1  0
 34 29  1  0
M  END
