
     RDKit          3D

 17 19  0  0  0  0  0  0  0  0999 V2000
    9.7860    0.8840   21.2280 O   0  0  0  0  0  0  0  0  0  0  0  0
    9.2860   -0.1730   21.6040 C   0  0  0  0  0  0  0  0  0  0  0  0
    8.1150   -0.6580   21.1550 N   0  0  0  0  0  0  0  0  0  0  0  0
    7.2900   -0.1010   20.1520 C   0  0  0  0  0  0  0  0  0  0  0  0
    7.6750   -0.0780   18.8100 C   0  0  0  0  0  0  0  0  0  0  0  0
    6.9130    0.4310   17.8360 N   0  0  0  0  0  0  0  0  0  0  0  0
    5.7220    0.9300   18.1860 C   0  0  0  0  0  0  0  0  0  0  0  0
    5.2500    0.9490   19.4830 C   0  0  0  0  0  0  0  0  0  0  0  0
    6.0370    0.4380   20.5060 C   0  0  0  0  0  0  0  0  0  0  0  0
    5.5780    0.5130   21.9420 C   0  0  0  0  0  0  0  0  0  0  0  0
    9.9650   -1.0740   22.6100 C   0  0  0  0  0  0  0  0  0  0  0  0
   11.4560   -0.7580   22.8870 C   0  0  1  0  0  0  0  0  0  0  0  0
   11.8490    0.3600   23.8580 C   0  0  0  0  0  0  0  0  0  0  0  0
   12.6640   -0.3690   24.9140 C   0  0  0  0  0  0  0  0  0  0  0  0
   13.4410   -1.4250   24.1540 C   0  0  0  0  0  0  0  0  0  0  0  0
   12.4800   -1.8470   23.0430 C   0  0  2  0  0  0  0  0  0  0  0  0
   12.4460   -1.0040   21.7960 C   0  0  0  0  0  0  0  0  0  0  0  0
  2  1  2  0
  3  2  1  0
  4  3  1  0
  5  4  2  0
  6  5  1  0
  7  6  2  0
  8  7  1  0
  9  8  2  0
  9  4  1  0
 10  9  1  0
 11  2  1  0
 12 11  1  6
 13 12  1  0
 14 13  1  0
 15 14  1  0
 16 15  1  1
 16 12  1  0
 17 16  1  0
 17 12  1  0
M  END
