
     RDKit          3D

 20 21  0  0  0  0  0  0  0  0999 V2000
    7.0390   -2.5170   25.9140 N   0  0  0  0  0  0  0  0  0  0  0  0
    6.0760   -0.3490   26.5370 C   0  0  0  0  0  0  0  0  0  0  0  0
    5.4640   -0.3110   25.3270 O   0  0  0  0  0  0  0  0  0  0  0  0
    5.9490    0.6670   27.4860 C   0  0  0  0  0  0  0  0  0  0  0  0
    7.8820   -3.2870   21.7810 C   0  0  0  0  0  0  0  0  0  0  0  0
    7.2340   -2.6970   23.0020 C   0  0  0  0  0  0  0  0  0  0  0  0
    6.5560   -3.9750   19.7960 C   0  0  0  0  0  0  0  0  0  0  0  0
    7.2580   -2.9020   19.0060 C   0  0  0  0  0  0  0  0  0  0  0  0
    6.6010    0.5590   28.7030 C   0  0  0  0  0  0  0  0  0  0  0  0
    7.3810   -0.5420   28.9850 C   0  0  0  0  0  0  0  0  0  0  0  0
    7.5180   -1.5570   28.0500 C   0  0  0  0  0  0  0  0  0  0  0  0
    6.8560   -1.4700   26.8410 C   0  0  0  0  0  0  0  0  0  0  0  0
    6.1300   -3.2000   25.1810 C   0  0  0  0  0  0  0  0  0  0  0  0
    6.7130   -3.8060   23.9180 C   0  0  1  0  0  0  0  0  0  0  0  0
    5.7220   -4.6750   23.1410 C   0  0  0  0  0  0  0  0  0  0  0  0
    6.3850   -5.2360   21.9060 C   0  0  0  0  0  0  0  0  0  0  0  0
    6.9310   -4.1520   21.0790 N   0  0  0  0  0  0  0  0  0  0  0  0
    4.9520   -3.3320   25.4940 O   0  0  0  0  0  0  0  0  0  0  0  0
    5.6910   -4.6630   19.2670 O   0  0  0  0  0  0  0  0  0  0  0  0
    8.8400   -3.4890   18.3310 S   0  0  0  0  0  0  0  0  0  0  0  0
  3  2  1  0
  4  2  2  0
  6  5  1  0
  8  7  1  0
  9  4  1  0
 10  9  2  0
 11 10  1  0
 12  2  1  0
 12  1  1  0
 12 11  2  0
 13  1  1  0
 14 13  1  1
 14  6  1  0
 15 14  1  0
 16 15  1  0
 17  7  1  0
 17  5  1  0
 17 16  1  0
 18 13  2  0
 19  7  2  0
  8 20  1  0
M  END
