
     RDKit          3D

 21 23  0  0  0  0  0  0  0  0999 V2000
    6.5590    1.1670   16.9420 O   0  0  0  0  0  0  0  0  0  0  0  0
    6.0840    0.9080   18.0420 C   0  0  0  0  0  0  0  0  0  0  0  0
    4.9150    1.4100   18.4350 N   0  0  0  0  0  0  0  0  0  0  0  0
    4.4630    1.6250   19.8260 C   0  0  0  0  0  0  0  0  0  0  0  0
    5.1970    0.6970   20.7820 C   0  0  0  0  0  0  0  0  0  0  0  0
    6.8370    0.0540   19.0190 C   0  0  0  0  0  0  0  0  0  0  0  0
    6.6720    0.6260   20.4260 C   0  0  2  0  0  0  0  0  0  0  0  0
    7.4360   -0.1420   21.4060 N   0  0  0  0  0  0  0  0  0  0  0  0
    8.6680    0.2120   21.7820 C   0  0  0  0  0  0  0  0  0  0  0  0
    9.2940    1.1100   21.2250 O   0  0  0  0  0  0  0  0  0  0  0  0
    9.2170   -0.5370   22.9990 C   0  0  2  0  0  0  0  0  0  0  0  0
    8.5560    0.0040   24.2790 C   0  0  0  0  0  0  0  0  0  0  0  0
    9.1420    1.3450   24.6340 C   0  0  0  0  0  0  0  0  0  0  0  0
   10.5590    1.2480   24.8780 O   0  0  0  0  0  0  0  0  0  0  0  0
   10.7200   -0.3410   23.0350 C   0  0  0  0  0  0  0  0  0  0  0  0
   11.5720   -1.0330   22.1720 C   0  0  0  0  0  0  0  0  0  0  0  0
   12.9280   -0.7700   22.1910 C   0  0  0  0  0  0  0  0  0  0  0  0
   13.9750   -1.6450   21.1130 Cl  0  0  0  0  0  0  0  0  0  0  0  0
   11.2840    0.5920   23.9120 C   0  0  0  0  0  0  0  0  0  0  0  0
   12.6440    0.8560   23.9060 C   0  0  0  0  0  0  0  0  0  0  0  0
   13.4720    0.1690   23.0390 C   0  0  0  0  0  0  0  0  0  0  0  0
  2  1  2  0
  3  2  1  0
  4  3  1  0
  5  4  1  0
  6  2  1  0
  7  5  1  0
  7  6  1  0
  7  8  1  1
  9  8  1  0
 10  9  2  0
 11  9  1  6
 12 11  1  0
 13 12  1  0
 14 13  1  0
 15 11  1  0
 16 15  1  0
 17 16  2  0
 18 17  1  0
 19 15  2  0
 19 14  1  0
 20 19  1  0
 21 20  2  0
 21 17  1  0
M  END
