
     RDKit          3D

 21 23  0  0  0  0  0  0  0  0999 V2000
    6.5740    0.5590   17.6260 N   0  0  0  0  0  0  0  0  0  0  0  0
    5.0710    0.9610   21.6410 C   0  0  0  0  0  0  0  0  0  0  0  0
    3.9330    1.8130   21.7210 O   0  0  0  0  0  0  0  0  0  0  0  0
   13.8660   -1.8020   21.2560 Cl  0  0  0  0  0  0  0  0  0  0  0  0
    5.5770    0.7740   20.2300 C   0  0  0  0  0  0  0  0  0  0  0  0
    7.4700   -0.5010   21.0270 N   0  0  0  0  0  0  0  0  0  0  0  0
    9.0480    1.1120   21.2080 O   0  0  0  0  0  0  0  0  0  0  0  0
    4.8980    1.3270   19.1540 C   0  0  0  0  0  0  0  0  0  0  0  0
    9.8410    1.0850   24.3040 O   0  0  0  0  0  0  0  0  0  0  0  0
    5.4310    1.2030   17.8870 C   0  0  0  0  0  0  0  0  0  0  0  0
    7.2270    0.0130   18.6530 C   0  0  0  0  0  0  0  0  0  0  0  0
    6.7660    0.0830   19.9620 C   0  0  0  0  0  0  0  0  0  0  0  0
    8.5130    0.0830   21.6210 C   0  0  0  0  0  0  0  0  0  0  0  0
    8.9600   -0.6080   22.9080 C   0  0  2  0  0  0  0  0  0  0  0  0
    8.6570    0.2540   24.1310 C   0  0  0  0  0  0  0  0  0  0  0  0
   10.9070    0.4170   23.7370 C   0  0  2  0  0  0  0  0  0  0  0  0
   12.2460    0.7260   23.8690 C   0  0  0  0  0  0  0  0  0  0  0  0
   13.1590    0.0350   23.0940 C   0  0  0  0  0  0  0  0  0  0  0  0
   12.7150   -0.9610   22.2410 C   0  0  0  0  0  0  0  0  0  0  0  0
   11.3840   -1.2960   22.1390 C   0  0  0  0  0  0  0  0  0  0  0  0
   10.4650   -0.5820   22.8930 C   0  0  2  0  0  0  0  0  0  0  0  0
  3  2  1  0
  5  2  1  0
  8  5  1  0
 10  8  1  0
 10  1  1  0
 11  1  1  0
 12 11  1  0
 12  6  1  0
 12  5  1  0
 13  7  1  0
 13  6  1  0
 14 13  1  6
 15 14  1  0
 15  9  1  0
 16  9  1  0
 16 17  1  6
 18 17  1  0
 19  4  1  0
 19 18  1  0
 20 19  1  0
 21 14  1  0
 21 20  1  6
 21 16  1  0
M  END
$$$$
