
     RDKit          3D

 19 20  0  0  0  0  0  0  0  0999 V2000
   13.8180   -1.8970   21.2020 Cl  0  0  0  0  0  0  0  0  0  0  0  0
   12.6510   -1.1080   22.2250 C   0  0  0  0  0  0  0  0  0  0  0  0
   13.0840   -0.1900   23.1590 C   0  0  0  0  0  0  0  0  0  0  0  0
   12.1430    0.4150   23.9780 C   0  0  0  0  0  0  0  0  0  0  0  0
   10.7950    0.1240   23.8260 C   0  0  0  0  0  0  0  0  0  0  0  0
   11.3160   -1.4080   22.0630 C   0  0  0  0  0  0  0  0  0  0  0  0
   10.3660   -0.7690   22.8500 C   0  0  0  0  0  0  0  0  0  0  0  0
    8.8940   -1.0020   22.5910 C   0  0  0  0  0  0  0  0  0  0  0  0
    8.4150   -0.1930   21.4010 C   0  0  0  0  0  0  0  0  0  0  0  0
    8.9420    0.8750   21.0830 O   0  0  0  0  0  0  0  0  0  0  0  0
    7.3230   -0.6900   20.7880 N   0  0  0  0  0  0  0  0  0  0  0  0
    6.6440   -0.0010   19.7500 C   0  0  0  0  0  0  0  0  0  0  0  0
    5.5650    0.8510   20.0370 C   0  0  0  0  0  0  0  0  0  0  0  0
    5.1060    1.0850   21.4560 C   0  0  0  0  0  0  0  0  0  0  0  0
    7.0830   -0.1570   18.4430 C   0  0  0  0  0  0  0  0  0  0  0  0
    6.5120    0.4700   17.4150 N   0  0  0  0  0  0  0  0  0  0  0  0
    5.4790    1.2780   17.6790 C   0  0  0  0  0  0  0  0  0  0  0  0
    4.9700    1.4940   18.9790 C   0  0  0  0  0  0  0  0  0  0  0  0
    3.8920    2.3570   19.1220 N   0  0  0  0  0  0  0  0  0  0  0  0
  2  1  1  0
  3  2  2  0
  4  3  1  0
  5  4  2  0
  6  2  1  0
  7  5  1  0
  7  6  2  0
  8  7  1  0
  9  8  1  0
 10  9  2  0
 11  9  1  0
 12 11  1  0
 13 12  2  0
 14 13  1  0
 15 12  1  0
 16 15  2  0
 17 16  1  0
 18 17  2  0
 18 13  1  0
 19 18  1  0
M  END
