
     RDKit          3D

 21 23  0  0  0  0  0  0  0  0999 V2000
    6.5380    0.6270   17.4080 N   0  0  0  0  0  0  0  0  0  0  0  0
    9.6320   -0.6450   23.4010 N   0  0  0  0  0  0  0  0  0  0  0  0
    5.4100    0.7490   19.9830 C   0  0  1  0  0  0  0  0  0  0  0  0
   12.9440    0.5430   23.9330 C   0  0  0  0  0  0  0  0  0  0  0  0
    9.3920    0.1360   24.5090 C   0  0  0  0  0  0  0  0  0  0  0  0
    4.8480    1.4320   18.9110 C   0  0  0  0  0  0  0  0  0  0  0  0
    8.2450   -0.3990   21.4160 C   0  0  0  0  0  0  0  0  0  0  0  0
    6.5430   -0.0390   19.7190 C   0  0  0  0  0  0  0  0  0  0  0  0
    7.0660   -0.0640   18.4240 C   0  0  0  0  0  0  0  0  0  0  0  0
   11.5800    0.2750   24.0520 C   0  0  0  0  0  0  0  0  0  0  0  0
   13.0740   -0.9200   22.0460 C   0  0  0  0  0  0  0  0  0  0  0  0
   10.5400    0.7090   24.9350 C   0  0  0  0  0  0  0  0  0  0  0  0
   13.6900   -0.0450   22.9280 C   0  0  0  0  0  0  0  0  0  0  0  0
   11.7200   -1.1970   22.1090 C   0  0  0  0  0  0  0  0  0  0  0  0
    4.8920    0.9580   21.3830 C   0  0  0  0  0  0  0  0  0  0  0  0
    7.1320   -0.7780   20.7660 N   0  0  0  0  0  0  0  0  0  0  0  0
    8.9050    0.6000   21.1280 O   0  0  0  0  0  0  0  0  0  0  0  0
    8.6080   -1.2920   22.5910 C   0  0  0  0  0  0  0  0  0  0  0  0
    5.4390    1.3500   17.6630 C   0  0  0  0  0  0  0  0  0  0  0  0
   10.9850   -0.5850   23.1140 C   0  0  0  0  0  0  0  0  0  0  0  0
   14.0390   -1.7330   20.8510 Cl  0  0  0  0  0  0  0  0  0  0  0  0
  5  2  1  0
  6  3  1  0
  8  3  1  0
  9  8  1  0
  9  1  1  0
 10  4  1  0
 12  5  1  0
 12 10  1  0
 13 11  1  0
 13  4  1  0
 14 11  1  0
  3 15  1  1
 16  8  1  0
 16  7  1  0
 17  7  1  0
 18  7  1  0
 18  2  1  0
 19  6  1  0
 19  1  1  0
 20  2  1  0
 20 14  1  0
 20 10  1  0
 21 11  1  0
M  END
$$$$
