
     RDKit          3D

 19 20  0  0  0  0  0  0  0  0999 V2000
    5.5090   -5.2900   24.3540 N   0  0  0  0  0  0  0  0  0  0  0  0
    4.2350   -2.5490   26.0300 C   0  0  0  0  0  0  0  0  0  0  0  0
    5.8120   -5.0540   26.7790 O   0  0  0  0  0  0  0  0  0  0  0  0
    3.4110   -1.4480   26.0790 C   0  0  0  0  0  0  0  0  0  0  0  0
    6.5620   -4.9950   21.7660 N   0  0  0  0  0  0  0  0  0  0  0  0
    3.9400   -6.4090   25.9000 O   0  0  0  0  0  0  0  0  0  0  0  0
    2.0430   -1.6280   25.9750 C   0  0  0  0  0  0  0  0  0  0  0  0
    5.8390   -4.5960   19.6660 O   0  0  0  0  0  0  0  0  0  0  0  0
    1.5070   -2.8870   25.8220 C   0  0  0  0  0  0  0  0  0  0  0  0
    2.3330   -3.9950   25.7700 C   0  0  0  0  0  0  0  0  0  0  0  0
    3.7090   -3.8350   25.8710 C   0  0  0  0  0  0  0  0  0  0  0  0
    6.4670   -4.2130   24.0620 C   0  0  0  0  0  0  0  0  0  0  0  0
    7.3670   -4.6540   22.9390 C   0  0  0  0  0  0  0  0  0  0  0  0
    5.6010   -6.0560   22.0600 C   0  0  0  0  0  0  0  0  0  0  0  0
    4.6890   -5.6320   23.1810 C   0  0  0  0  0  0  0  0  0  0  0  0
    6.6630   -4.4110   20.5510 C   0  0  0  0  0  0  0  0  0  0  0  0
    7.8410   -3.5060   20.3090 C   0  0  0  0  0  0  0  0  0  0  0  0
    5.5700   -2.3610   26.1350 F   0  0  0  0  0  0  0  0  0  0  0  0
    4.7710   -5.2480   25.8180 S   0  0  2  0  0  0  0  0  0  0  0  0
  4  2  1  0
  7  4  1  0
  9  7  1  0
 10  9  1  0
 11 10  1  0
 11  2  1  0
 12  1  1  0
 13  5  1  0
 13 12  1  0
 14  5  1  0
 15 14  1  0
 15  1  1  0
 16  8  1  0
 16  5  1  0
 17 16  1  0
 18  2  1  0
 19  6  1  1
 19 11  1  0
 19  3  1  0
 19  1  1  0
M  END
$$$$
