
     RDKit          3D

 18 19  0  0  0  0  0  0  0  0999 V2000
   24.6120  -17.8080   25.4800 C   0  0  0  0  0  0  0  0  0  0  0  0
   24.0980  -18.8480   24.4730 C   0  0  2  0  0  0  0  0  0  0  0  0
   24.8470  -18.8820   23.1970 C   0  0  0  0  0  0  0  0  0  0  0  0
   24.4510  -20.1030   22.3600 C   0  0  0  0  0  0  0  0  0  0  0  0
   22.2270  -20.0620   23.6440 C   0  0  0  0  0  0  0  0  0  0  0  0
   22.6780  -18.6970   24.1370 C   0  0  0  0  0  0  0  0  0  0  0  0
   22.4420  -21.7370   21.7540 C   0  0  0  0  0  0  0  0  0  0  0  0
   22.5540  -23.4260   19.8810 C   0  0  0  0  0  0  0  0  0  0  0  0
   22.4610  -23.2510   18.5140 C   0  0  0  0  0  0  0  0  0  0  0  0
   21.9000  -24.2460   17.7240 C   0  0  0  0  0  0  0  0  0  0  0  0
   21.4360  -25.4170   18.3130 C   0  0  0  0  0  0  0  0  0  0  0  0
   21.5320  -25.5920   19.6880 C   0  0  0  0  0  0  0  0  0  0  0  0
   22.0920  -24.5960   20.4740 C   0  0  0  0  0  0  0  0  0  0  0  0
   23.8190  -16.6800   25.9560 N   0  0  0  0  0  0  0  0  0  0  0  0
   23.0480  -20.6620   22.5400 N   0  0  0  0  0  0  0  0  0  0  0  0
   23.1560  -22.3700   20.6630 N   0  0  0  0  0  0  0  0  0  0  0  0
   25.6980  -17.9500   25.9220 O   0  0  0  0  0  0  0  0  0  0  0  0
   21.3360  -22.0910   22.0070 O   0  0  0  0  0  0  0  0  0  0  0  0
  2  1  1  1
  3  2  1  0
  4  3  1  0
  6  5  1  0
  6  2  1  0
  9  8  2  0
 10  9  1  0
 11 10  2  0
 12 11  1  0
 13 12  2  0
 13  8  1  0
 14  1  1  0
 15  7  1  0
 15  5  1  0
 15  4  1  0
 16  8  1  0
 16  7  1  0
 17  1  2  0
 18  7  2  0
M  END
