
     RDKit          3D

 19 20  0  0  0  0  0  0  0  0999 V2000
    6.4770    0.5540   17.5370 N   0  0  0  0  0  0  0  0  0  0  0  0
    7.3750   -0.4700   20.9740 N   0  0  0  0  0  0  0  0  0  0  0  0
    5.5760    0.9570   20.1520 C   0  0  0  0  0  0  0  0  0  0  0  0
   13.2770   -0.1690   23.0970 C   0  0  0  0  0  0  0  0  0  0  0  0
   10.5210   -0.5870   22.8880 C   0  0  1  0  0  0  0  0  0  0  0  0
    4.9320    1.5390   19.0670 C   0  0  0  0  0  0  0  0  0  0  0  0
    8.5280    0.0090   21.4820 C   0  0  0  0  0  0  0  0  0  0  0  0
    6.6860    0.1420   19.8980 C   0  0  0  0  0  0  0  0  0  0  0  0
    7.1230   -0.0490   18.5650 C   0  0  0  0  0  0  0  0  0  0  0  0
   12.4100    0.4250   23.9990 C   0  0  0  0  0  0  0  0  0  0  0  0
   11.3970   -1.2040   22.0020 C   0  0  0  0  0  0  0  0  0  0  0  0
   11.0430    0.2090   23.9000 C   0  0  0  0  0  0  0  0  0  0  0  0
   12.7550   -1.0030   22.1310 C   0  0  2  0  0  0  0  0  0  0  0  0
    5.0830    1.2080   21.5550 C   0  0  0  0  0  0  0  0  0  0  0  0
    8.1820   -0.8110   18.2760 N   0  0  0  0  0  0  0  0  0  0  0  0
    9.1170    0.9840   21.0240 O   0  0  0  0  0  0  0  0  0  0  0  0
    9.0300   -0.7370   22.7030 C   0  0  0  0  0  0  0  0  0  0  0  0
    5.4060    1.3120   17.7980 C   0  0  0  0  0  0  0  0  0  0  0  0
   13.8360   -1.9150   21.1160 Cl  0  0  0  0  0  0  0  0  0  0  0  0
  6  3  1  0
  7  2  1  0
  8  3  1  0
  8  2  1  0
  9  8  1  0
  9  1  1  0
 10  4  1  0
 11  5  1  0
 12  5  1  0
 12 10  1  0
 13 11  1  0
 13  4  1  0
 14  3  1  0
 15  9  1  0
 16  7  1  0
 17  7  1  0
  5 17  1  6
 18  6  1  0
 18  1  1  0
 13 19  1  1
M  END
$$$$
