
     RDKit          3D

 23 24  0  0  0  0  0  0  0  0999 V2000
    8.8930    0.9090   21.0610 O   0  0  0  0  0  0  0  0  0  0  0  0
    8.3890   -0.1670   21.3640 C   0  0  0  0  0  0  0  0  0  0  0  0
    7.3340   -0.6960   20.7170 N   0  0  0  0  0  0  0  0  0  0  0  0
    6.5930   -0.0390   19.7110 C   0  0  0  0  0  0  0  0  0  0  0  0
    5.4530    0.7090   20.0620 C   0  0  0  0  0  0  0  0  0  0  0  0
    4.9990    0.8500   21.4920 C   0  0  0  0  0  0  0  0  0  0  0  0
    4.7870    1.3760   19.0410 C   0  0  0  0  0  0  0  0  0  0  0  0
    5.2670    1.2970   17.7490 C   0  0  0  0  0  0  0  0  0  0  0  0
    6.3540    0.5950   17.4040 N   0  0  0  0  0  0  0  0  0  0  0  0
    6.9930   -0.0650   18.3750 C   0  0  0  0  0  0  0  0  0  0  0  0
    8.9070   -1.0010   22.5200 C   0  0  0  0  0  0  0  0  0  0  0  0
   10.3530   -0.6780   22.8180 C   0  0  0  0  0  0  0  0  0  0  0  0
   11.3720   -1.3890   22.1970 C   0  0  0  0  0  0  0  0  0  0  0  0
   12.6720   -0.9400   22.3060 C   0  0  0  0  0  0  0  0  0  0  0  0
   13.9490   -1.8680   21.5810 Cl  0  0  0  0  0  0  0  0  0  0  0  0
   12.9890    0.2140   22.9930 C   0  0  0  0  0  0  0  0  0  0  0  0
   10.6780    0.4400   23.5790 C   0  0  0  0  0  0  0  0  0  0  0  0
   11.9820    0.9170   23.6450 C   0  0  0  0  0  0  0  0  0  0  0  0
   12.3110    2.1580   24.4410 C   0  0  0  0  0  0  0  0  0  0  0  0
   11.9770    3.4450   23.8420 N   0  0  0  0  0  0  0  0  0  0  0  0
   10.8090    3.9400   23.4180 C   0  0  0  0  0  0  0  0  0  0  0  0
    9.9590    3.2360   22.8690 O   0  0  0  0  0  0  0  0  0  0  0  0
   10.5880    5.4070   23.6490 C   0  0  0  0  0  0  0  0  0  0  0  0
  2  1  2  0
  3  2  1  0
  4  3  1  0
  5  4  2  0
  6  5  1  0
  7  5  1  0
  8  7  2  0
  9  8  1  0
 10  9  2  0
 10  4  1  0
 11  2  1  0
 12 11  1  0
 13 12  2  0
 14 13  1  0
 15 14  1  0
 16 14  2  0
 17 12  1  0
 18 17  2  0
 18 16  1  0
 19 18  1  0
 20 19  1  0
 21 20  1  0
 22 21  2  0
 23 21  1  0
M  END
