
     RDKit          3D

 12 13  0  0  0  0  0  0  0  0999 V2000
    5.7530   -3.3970   23.5280 C   0  0  2  0  0  0  0  0  0  0  0  0
    5.9920   -4.1410   22.3540 C   0  0  2  0  0  0  0  0  0  0  0  0
    5.2770   -5.3780   22.4900 C   0  0  0  0  0  0  0  0  0  0  0  0
    6.2320   -4.9850   19.5690 O   0  0  0  0  0  0  0  0  0  0  0  0
    6.3930   -2.1870   23.7770 C   0  0  0  0  0  0  0  0  0  0  0  0
    4.9070   -4.1420   24.3150 N   0  0  0  0  0  0  0  0  0  0  0  0
    7.5680   -2.4310   21.6820 C   0  0  0  0  0  0  0  0  0  0  0  0
    6.8960   -3.6240   21.4100 C   0  0  2  0  0  0  0  0  0  0  0  0
    7.3140   -1.7230   22.8490 C   0  0  0  0  0  0  0  0  0  0  0  0
    7.0470   -4.2550   20.0690 C   0  0  0  0  0  0  0  0  0  0  0  0
    4.6370   -5.3300   23.6840 C   0  0  0  0  0  0  0  0  0  0  0  0
    8.3040   -3.8360   18.9300 S   0  0  0  0  0  0  0  0  0  0  0  0
  2  1  1  0
  2  3  1  1
  1  5  1  1
  6  1  1  0
  8  7  1  0
  8  2  1  0
  9  7  1  0
  9  5  1  0
  8 10  1  6
 10  4  1  0
 11  6  1  0
 11  3  1  0
 10 12  1  0
M  END
