
     RDKit          3D

 19 20  0  0  0  0  0  0  0  0999 V2000
   11.2590   -3.6970   27.0740 Cl  0  0  0  0  0  0  0  0  0  0  0  0
   11.9220   -2.7610   25.7640 C   0  0  0  0  0  0  0  0  0  0  0  0
   13.2810   -2.8010   25.5280 C   0  0  0  0  0  0  0  0  0  0  0  0
   13.8080   -1.9700   24.5530 C   0  0  0  0  0  0  0  0  0  0  0  0
   12.9780   -1.1220   23.8330 C   0  0  0  0  0  0  0  0  0  0  0  0
   11.0790   -1.9410   25.0400 C   0  0  0  0  0  0  0  0  0  0  0  0
   11.6060   -1.1020   24.0630 C   0  0  0  0  0  0  0  0  0  0  0  0
   10.6910   -0.1990   23.2680 C   0  0  0  0  0  0  0  0  0  0  0  0
    9.5950   -0.9660   22.4890 C   0  0  0  0  0  0  0  0  0  0  0  0
    8.8910   -0.1070   21.4600 C   0  0  0  0  0  0  0  0  0  0  0  0
    9.3760    0.9500   21.0640 O   0  0  0  0  0  0  0  0  0  0  0  0
    7.7100   -0.6020   21.0220 N   0  0  0  0  0  0  0  0  0  0  0  0
    6.9100   -0.0470   19.9870 C   0  0  0  0  0  0  0  0  0  0  0  0
    5.7350    0.6660   20.3000 C   0  0  0  0  0  0  0  0  0  0  0  0
    5.2460    0.8220   21.7170 C   0  0  0  0  0  0  0  0  0  0  0  0
    7.2860   -0.1490   18.6470 C   0  0  0  0  0  0  0  0  0  0  0  0
    6.5970    0.3970   17.6400 N   0  0  0  0  0  0  0  0  0  0  0  0
    5.4840    1.0720   17.9500 C   0  0  0  0  0  0  0  0  0  0  0  0
    5.0240    1.2290   19.2430 C   0  0  0  0  0  0  0  0  0  0  0  0
  2  1  1  0
  3  2  2  0
  4  3  1  0
  5  4  2  0
  6  2  1  0
  7  6  2  0
  7  5  1  0
  8  7  1  0
  9  8  1  0
 10  9  1  0
 11 10  2  0
 12 10  1  0
 13 12  1  0
 14 13  2  0
 15 14  1  0
 16 13  1  0
 17 16  2  0
 18 17  1  0
 19 18  2  0
 19 14  1  0
M  END
