
     RDKit          3D

 10 10  0  0  0  0  0  0  0  0999 V2000
   -1.4290    6.1920  -14.4010 C   0  0  0  0  0  0  0  0  0  0  0  0
   -1.5920    5.7880  -15.5400 O   0  0  0  0  0  0  0  0  0  0  0  0
    0.5110    7.5060  -15.1420 C   0  0  0  0  0  0  0  0  0  0  0  0
   -0.3640    7.1150  -14.0950 O   0  0  0  0  0  0  0  0  0  0  0  0
    1.8990    7.6740  -14.6040 C   0  0  0  0  0  0  0  0  0  0  0  0
    2.5290    6.6090  -13.9690 C   0  0  0  0  0  0  0  0  0  0  0  0
    3.8160    6.7630  -13.4720 C   0  0  0  0  0  0  0  0  0  0  0  0
    4.4580    7.9890  -13.6170 C   0  0  0  0  0  0  0  0  0  0  0  0
    3.8210    9.0480  -14.2580 C   0  0  0  0  0  0  0  0  0  0  0  0
    2.5370    8.8940  -14.7510 C   0  0  0  0  0  0  0  0  0  0  0  0
  2  1  1  0
  4  3  1  0
  4  1  1  0
  5  3  1  0
  6  5  1  0
  7  6  1  0
  8  7  1  0
  9  8  1  0
 10  9  1  0
 10  5  1  0
M  END
