
     RDKit          3D

 22 25  0  0  0  0  0  0  0  0999 V2000
    7.1840   -0.0920   20.8100 N   0  0  0  0  0  0  0  0  0  0  0  0
   12.4280   -0.8310   22.4390 C   0  0  0  0  0  0  0  0  0  0  0  0
    9.6160    1.0540   24.7780 O   0  0  0  0  0  0  0  0  0  0  0  0
   13.6440   -1.5940   21.4520 Cl  0  0  0  0  0  0  0  0  0  0  0  0
   12.8150    0.0430   23.4300 C   0  0  0  0  0  0  0  0  0  0  0  0
    7.5620    0.3090   18.4670 N   0  0  0  0  0  0  0  0  0  0  0  0
    9.1510    0.9340   20.9610 O   0  0  0  0  0  0  0  0  0  0  0  0
   11.8490    0.6390   24.2190 C   0  0  0  0  0  0  0  0  0  0  0  0
    6.7070    0.5140   17.3970 N   0  0  0  0  0  0  0  0  0  0  0  0
   10.5070    0.3770   23.9790 C   0  0  0  0  0  0  0  0  0  0  0  0
    5.5390    0.5810   19.2550 N   0  0  0  0  0  0  0  0  0  0  0  0
    8.2650    1.1570   24.2820 C   0  0  0  0  0  0  0  0  0  0  0  0
    7.7470   -0.1740   23.8050 C   0  0  0  0  0  0  0  0  0  0  0  0
    8.6390   -0.7050   22.6610 C   0  0  1  0  0  0  0  0  0  0  0  0
    8.4130    0.0320   21.3400 C   0  0  0  0  0  0  0  0  0  0  0  0
    6.8300    0.3520   19.5690 C   0  0  0  0  0  0  0  0  0  0  0  0
    5.5160    0.6750   17.8960 C   0  0  0  0  0  0  0  0  0  0  0  0
    4.5020    0.9580   20.2340 C   0  0  1  0  0  0  0  0  0  0  0  0
    4.7940    2.0980   21.1460 C   0  0  0  0  0  0  0  0  0  0  0  0
    3.7810    2.2480   20.0570 C   0  0  0  0  0  0  0  0  0  0  0  0
   10.1100   -0.5040   22.9680 C   0  0  0  0  0  0  0  0  0  0  0  0
   11.1000   -1.1200   22.2030 C   0  0  0  0  0  0  0  0  0  0  0  0
  4  2  1  0
  5  2  2  0
  8  5  1  0
  9  6  1  0
 10  3  1  0
 10  8  2  0
 12  3  1  0
 13 12  1  0
 14 13  1  0
 15  7  2  0
 15  1  1  0
 14 15  1  6
 16 11  1  0
 16  6  2  0
 16  1  1  0
 17 11  1  0
 17  9  2  0
 18 11  1  6
 19 18  1  0
 20 19  1  0
 20 18  1  0
 21 14  1  0
 21 10  1  0
 22 21  2  0
 22  2  1  0
M  END
