
     RDKit          3D

 21 23  0  0  0  0  0  0  0  0999 V2000
    6.6110    0.4350   17.6250 N   0  0  0  0  0  0  0  0  0  0  0  0
    5.0070    1.1320   21.5570 C   0  0  0  0  0  0  0  0  0  0  0  0
    9.2710    0.7690   21.0870 O   0  0  0  0  0  0  0  0  0  0  0  0
    5.5610    0.8330   20.1870 C   0  0  0  0  0  0  0  0  0  0  0  0
    9.4830   -1.2350   22.1710 N   0  0  0  0  0  0  0  0  0  0  0  0
    4.9600    1.3910   19.0650 C   0  0  0  0  0  0  0  0  0  0  0  0
   10.5010   -2.9010   26.0270 N   0  0  0  0  0  0  0  0  0  0  0  0
    5.5080    1.1640   17.8180 C   0  0  0  0  0  0  0  0  0  0  0  0
    7.1760   -0.1110   18.7060 C   0  0  0  0  0  0  0  0  0  0  0  0
    6.7030    0.0380   19.9980 C   0  0  2  0  0  0  0  0  0  0  0  0
    7.3590   -0.6820   21.1580 C   0  0  0  0  0  0  0  0  0  0  0  0
    8.7980   -0.3050   21.4540 C   0  0  0  0  0  0  0  0  0  0  0  0
   10.8340   -1.2620   22.6240 C   0  0  2  0  0  0  0  0  0  0  0  0
   11.8390   -0.6960   21.8460 C   0  0  0  0  0  0  0  0  0  0  0  0
   13.1550   -0.7750   22.2620 C   0  0  0  0  0  0  0  0  0  0  0  0
   13.4780   -1.4210   23.4400 C   0  0  0  0  0  0  0  0  0  0  0  0
   12.4910   -1.9990   24.2340 C   0  0  0  0  0  0  0  0  0  0  0  0
   12.8950   -2.7050   25.5050 C   0  0  0  0  0  0  0  0  0  0  0  0
   11.7920   -3.6170   25.9850 C   0  0  0  0  0  0  0  0  0  0  0  0
   10.0490   -2.5190   24.6860 C   0  0  0  0  0  0  0  0  0  0  0  0
   11.1440   -1.9190   23.8390 C   0  0  0  0  0  0  0  0  0  0  0  0
  4  2  1  0
  6  4  1  0
  8  6  1  0
  8  1  1  0
  9  1  1  0
 10  9  1  0
 10  4  1  0
 10 11  1  6
 12 11  1  0
 12  3  1  0
 12  5  1  0
 13  5  1  6
 14 13  1  0
 15 14  1  0
 16 15  1  0
 17 16  1  0
 18 17  1  0
 19  7  1  0
 19 18  1  0
 20  7  1  0
 21 20  1  0
 21 13  1  0
 21 17  1  0
M  END
$$$$
