
     RDKit          3D

 21 23  0  0  0  0  0  0  0  0999 V2000
    8.9170    0.7530   21.0260 O   0  0  0  0  0  0  0  0  0  0  0  0
    8.3880   -0.3240   21.3070 C   0  0  1  0  0  0  0  0  0  0  0  0
    8.8810   -1.1900   22.4510 C   0  0  0  0  0  0  0  0  0  0  0  0
   10.3220   -0.8940   22.7910 C   0  0  2  0  0  0  0  0  0  0  0  0
   10.6560    0.0720   23.7350 C   0  0  0  0  0  0  0  0  0  0  0  0
   11.9780    0.4600   23.9150 C   0  0  0  0  0  0  0  0  0  0  0  0
   12.9840   -0.1200   23.1530 C   0  0  0  0  0  0  0  0  0  0  0  0
   11.3360   -1.5050   22.0650 C   0  0  0  0  0  0  0  0  0  0  0  0
   12.6400   -1.1000   22.2390 C   0  0  0  0  0  0  0  0  0  0  0  0
   13.8840   -1.8490   21.2740 Cl  0  0  0  0  0  0  0  0  0  0  0  0
    7.2820   -0.7860   20.6970 N   0  0  0  0  0  0  0  0  0  0  0  0
    6.5490   -0.1430   19.6820 C   0  0  1  0  0  0  0  0  0  0  0  0
    5.4330    0.6750   20.0380 C   0  0  0  0  0  0  0  0  0  0  0  0
    4.9500    0.8250   21.3660 C   0  0  0  0  0  0  0  0  0  0  0  0
    3.8480    1.5940   21.6320 C   0  0  0  0  0  0  0  0  0  0  0  0
    3.1900    2.2660   20.6100 C   0  0  0  0  0  0  0  0  0  0  0  0
    3.6360    2.1770   19.3200 C   0  0  0  0  0  0  0  0  0  0  0  0
    4.7660    1.3780   19.0010 C   0  0  0  0  0  0  0  0  0  0  0  0
    5.2760    1.2450   17.6880 C   0  0  0  0  0  0  0  0  0  0  0  0
    6.3230    0.4910   17.3650 N   0  0  0  0  0  0  0  0  0  0  0  0
    6.9280   -0.1850   18.3470 C   0  0  0  0  0  0  0  0  0  0  0  0
  2  1  1  1
  3  2  1  0
  4  3  1  6
  5  4  1  0
  6  5  1  0
  7  6  1  0
  8  4  1  0
  9  8  1  0
  9  7  1  0
 10  9  1  0
 11  2  1  0
 12 11  1  1
 13 12  1  0
 14 13  1  0
 15 14  1  0
 16 15  1  0
 17 16  1  0
 18 17  1  0
 18 13  1  0
 19 18  1  0
 20 19  1  0
 21 20  1  0
 21 12  1  0
M  END
$$$$
