
     RDKit          3D

 23 25  0  0  0  0  0  0  0  0999 V2000
    6.5270    0.5020   17.5330 N   0  0  0  0  0  0  0  0  0  0  0  0
    5.1910    0.7260   21.6310 C   0  0  0  0  0  0  0  0  0  0  0  0
    9.1120    1.0920   21.0640 O   0  0  0  0  0  0  0  0  0  0  0  0
    5.6450    0.5980   20.2000 C   0  0  0  0  0  0  0  0  0  0  0  0
    7.6480   -0.6280   20.8610 N   0  0  0  0  0  0  0  0  0  0  0  0
   12.8060    2.4690   23.5190 O   0  0  0  0  0  0  0  0  0  0  0  0
    4.9210    1.1930   19.1730 C   0  0  0  0  0  0  0  0  0  0  0  0
   12.0050    4.7120   22.9140 N   0  0  0  0  0  0  0  0  0  0  0  0
   13.2870    6.6210   22.4270 O   0  0  0  0  0  0  0  0  0  0  0  0
    5.3930    1.1250   17.8770 C   0  0  0  0  0  0  0  0  0  0  0  0
    7.2240   -0.0890   18.5100 C   0  0  0  0  0  0  0  0  0  0  0  0
    6.8370   -0.0670   19.8500 C   0  0  0  0  0  0  0  0  0  0  0  0
    8.7350   -0.0300   21.3910 C   0  0  0  0  0  0  0  0  0  0  0  0
    9.4640   -0.8550   22.4350 C   0  0  0  0  0  0  0  0  0  0  0  0
   10.9220   -0.4680   22.5560 C   0  0  0  0  0  0  0  0  0  0  0  0
   11.9180   -1.2560   21.9950 C   0  0  0  0  0  0  0  0  0  0  0  0
   13.2380   -0.8330   21.9810 C   0  0  0  0  0  0  0  0  0  0  0  0
   13.5840    0.3910   22.5290 C   0  0  0  0  0  0  0  0  0  0  0  0
   12.5920    1.1780   23.0930 C   0  0  0  0  0  0  0  0  0  0  0  0
   12.5620    3.4220   22.4680 C   0  0  1  0  0  0  0  0  0  0  0  0
   13.8890    4.1540   22.2480 C   0  0  0  0  0  0  0  0  0  0  0  0
   13.0830    5.4140   22.5180 C   0  0  0  0  0  0  0  0  0  0  0  0
   11.2760    0.7440   23.1400 C   0  0  0  0  0  0  0  0  0  0  0  0
  4  2  1  0
  7  4  2  0
 10  7  1  0
 10  1  2  0
 11  1  1  0
 12 11  2  0
 12  5  1  0
 12  4  1  0
 13  5  1  0
 13  3  2  0
 14 13  1  0
 15 14  1  0
 16 15  2  0
 17 16  1  0
 18 17  2  0
 19 18  1  0
 19  6  1  0
 20  8  1  0
 20  6  1  1
 21 20  1  0
 22 21  1  0
 22  8  1  0
 22  9  2  0
 23 19  2  0
 23 15  1  0
M  END
