
     RDKit          3D

 18 19  0  0  0  0  0  0  0  0999 V2000
    9.3730    0.6160   21.0330 O   0  0  0  0  0  0  0  0  0  0  0  0
    8.7720   -0.4050   21.3620 C   0  0  0  0  0  0  0  0  0  0  0  0
    7.5380   -0.7290   20.9270 N   0  0  0  0  0  0  0  0  0  0  0  0
    6.8290   -0.0570   19.9110 C   0  0  0  0  0  0  0  0  0  0  0  0
    7.2570   -0.0940   18.5830 C   0  0  0  0  0  0  0  0  0  0  0  0
    6.6200    0.5330   17.5900 N   0  0  0  0  0  0  0  0  0  0  0  0
    5.5150    1.2190   17.9030 C   0  0  0  0  0  0  0  0  0  0  0  0
    5.0220    1.3250   19.1880 C   0  0  0  0  0  0  0  0  0  0  0  0
    5.6780    0.6850   20.2310 C   0  0  0  0  0  0  0  0  0  0  0  0
    5.1920    0.8350   21.6500 C   0  0  0  0  0  0  0  0  0  0  0  0
    9.3740   -1.4160   22.3160 C   0  0  0  0  0  0  0  0  0  0  0  0
   10.7320   -0.9620   22.7950 C   0  0  0  0  0  0  0  0  0  0  0  0
   10.8440   -0.1860   23.9410 C   0  0  0  0  0  0  0  0  0  0  0  0
   12.0840    0.2610   24.3670 C   0  0  0  0  0  0  0  0  0  0  0  0
   12.1590    0.9790   25.5200 O   0  0  0  0  0  0  0  0  0  0  0  0
   13.2280   -0.0440   23.6430 C   0  0  0  0  0  0  0  0  0  0  0  0
   13.1200   -0.8250   22.5040 C   0  0  0  0  0  0  0  0  0  0  0  0
   11.8820   -1.2860   22.0900 C   0  0  0  0  0  0  0  0  0  0  0  0
  2  1  2  0
  3  2  1  0
  4  3  1  0
  5  4  2  0
  6  5  1  0
  7  6  2  0
  8  7  1  0
  9  8  2  0
  9  4  1  0
 10  9  1  0
 11  2  1  0
 12 11  1  0
 13 12  2  0
 14 13  1  0
 15 14  1  0
 16 14  2  0
 17 16  1  0
 18 12  1  0
 18 17  2  0
M  END
