
     RDKit          3D

 23 25  0  0  0  0  0  0  0  0999 V2000
    6.4200    0.6670   17.3500 N   0  0  0  0  0  0  0  0  0  0  0  0
    9.3840   -0.3800   23.3930 N   0  0  0  0  0  0  0  0  0  0  0  0
    5.2870    0.9060   19.9060 C   0  0  0  0  0  0  0  0  0  0  0  0
   12.8670    0.3670   24.2650 C   0  0  0  0  0  0  0  0  0  0  0  0
    7.5080    0.7010   24.1790 O   0  0  0  0  0  0  0  0  0  0  0  0
    8.7250    0.5420   24.1810 C   0  0  0  0  0  0  0  0  0  0  0  0
    4.7740    1.5990   18.8170 C   0  0  0  0  0  0  0  0  0  0  0  0
    8.1430   -0.2780   21.3150 C   0  0  0  0  0  0  0  0  0  0  0  0
    6.3760    0.0520   19.6700 C   0  0  0  0  0  0  0  0  0  0  0  0
    6.9020   -0.0340   18.3820 C   0  0  0  0  0  0  0  0  0  0  0  0
   11.4920    0.2670   24.3200 C   0  0  0  0  0  0  0  0  0  0  0  0
   12.8590   -1.0600   22.3620 C   0  0  0  0  0  0  0  0  0  0  0  0
    9.5660    1.4090   25.0870 C   0  0  0  0  0  0  0  0  0  0  0  0
   13.5520   -0.2810   23.2580 C   0  0  0  0  0  0  0  0  0  0  0  0
   11.4830   -1.1720   22.3960 C   0  0  0  0  0  0  0  0  0  0  0  0
    4.7420    1.1430   21.2920 C   0  0  0  0  0  0  0  0  0  0  0  0
    6.9760   -0.6430   20.7430 N   0  0  0  0  0  0  0  0  0  0  0  0
    8.7930    0.7110   20.9920 O   0  0  0  0  0  0  0  0  0  0  0  0
   10.8630    0.8720   25.3770 O   0  0  0  0  0  0  0  0  0  0  0  0
    8.5830   -1.1660   22.4630 C   0  0  0  0  0  0  0  0  0  0  0  0
    5.3690    1.4660   17.5810 C   0  0  0  0  0  0  0  0  0  0  0  0
   10.7870   -0.4610   23.3700 C   0  0  0  0  0  0  0  0  0  0  0  0
   13.7530   -1.9660   21.1720 Cl  0  0  0  0  0  0  0  0  0  0  0  0
  6  5  2  0
  6  2  1  0
  7  3  1  0
  9  3  2  0
 10  9  1  0
 10  1  2  0
 11  4  2  0
 13  6  1  0
 14 12  2  0
 14  4  1  0
 15 12  1  0
 16  3  1  0
 17  9  1  0
 17  8  1  0
 18  8  2  0
 19 13  1  0
 19 11  1  0
 20  8  1  0
 20  2  1  0
 21  7  2  0
 21  1  1  0
 22  2  1  0
 22 15  2  0
 22 11  1  0
 23 12  1  0
M  END
