
     RDKit          3D

  7  7  0  0  0  0  0  0  0  0999 V2000
   24.6020   -7.7690    5.1770 C   0  0  2  0  0  0  0  0  0  0  0  0
   24.7420   -7.2700    3.8920 O   0  0  0  0  0  0  0  0  0  0  0  0
   23.5300   -8.8850    5.1930 C   0  0  0  0  0  0  0  0  0  0  0  0
   21.3190   -7.5780    5.4660 O   0  0  0  0  0  0  0  0  0  0  0  0
   23.7260   -6.8350    6.0400 C   0  0  0  0  0  0  0  0  0  0  0  0
   22.3170   -8.4080    7.4750 O   0  0  0  0  0  0  0  0  0  0  0  0
   22.4750   -7.9630    6.1630 S   0  0  2  0  0  0  0  0  0  0  0  0
  1  2  1  6
  3  1  1  0
  5  1  1  0
  7  4  1  6
  7  3  1  0
  7  6  1  0
  7  5  1  0
M  END
$$$$
