
     RDKit          3D

 20 21  0  0  0  0  0  0  0  0999 V2000
    7.6790   -3.4890   20.2520 C   0  0  0  0  0  0  0  0  0  0  0  0
    6.6620   -4.5720   20.5110 C   0  0  0  0  0  0  0  0  0  0  0  0
    5.8740   -4.8880   19.6280 O   0  0  0  0  0  0  0  0  0  0  0  0
    6.6160   -5.1310   21.7430 N   0  0  0  0  0  0  0  0  0  0  0  0
    5.4910   -5.9770   22.1380 C   0  0  0  0  0  0  0  0  0  0  0  0
    4.7890   -5.3570   23.3140 C   0  0  0  0  0  0  0  0  0  0  0  0
    7.5830   -4.9920   22.8350 C   0  0  0  0  0  0  0  0  0  0  0  0
    6.9100   -4.4000   24.0470 C   0  0  0  0  0  0  0  0  0  0  0  0
    5.7590   -5.2420   24.4130 N   0  0  0  0  0  0  0  0  0  0  0  0
    5.1440   -5.0970   25.9250 S   0  0  1  0  0  0  0  0  0  0  0  0
    4.4710   -6.3290   26.1990 O   0  0  0  0  0  0  0  0  0  0  0  0
    6.2180   -4.6750   26.7700 O   0  0  0  0  0  0  0  0  0  0  0  0
    3.9160   -3.8230   25.8940 C   0  0  0  0  0  0  0  0  0  0  0  0
    2.5710   -4.1470   25.7890 C   0  0  0  0  0  0  0  0  0  0  0  0
    2.1960   -5.4440   25.7040 F   0  0  0  0  0  0  0  0  0  0  0  0
    4.2650   -2.4840   25.9810 C   0  0  0  0  0  0  0  0  0  0  0  0
    5.5670   -2.1260   26.0820 F   0  0  0  0  0  0  0  0  0  0  0  0
    3.3100   -1.4950   25.9660 C   0  0  0  0  0  0  0  0  0  0  0  0
    1.9800   -1.8580   25.8570 C   0  0  0  0  0  0  0  0  0  0  0  0
    1.5960   -3.1810   25.7690 C   0  0  0  0  0  0  0  0  0  0  0  0
  2  1  1  0
  3  2  2  0
  4  2  1  0
  5  4  1  0
  6  5  1  0
  7  4  1  0
  8  7  1  0
  9  6  1  0
  9  8  1  0
 10  9  1  0
 11 10  2  0
 12 10  2  0
 10 13  1  6
 14 13  2  0
 15 14  1  0
 16 13  1  0
 17 16  1  0
 18 16  2  0
 19 18  1  0
 20 19  2  0
 20 14  1  0
M  END
