
     RDKit          3D

 30 33  0  0  0  0  0  0  0  0999 V2000
    9.3230    1.5650   20.6100 O   0  0  0  0  0  0  0  0  0  0  0  0
    8.9630    0.5470   21.2690 C   0  0  0  0  0  0  0  0  0  0  0  0
    9.5520    0.3020   22.4690 N   0  0  0  0  0  0  0  0  0  0  0  0
    9.1970   -0.8370   23.2690 C   0  0  0  0  0  0  0  0  0  0  0  0
    8.2300   -0.7160   24.2790 C   0  0  0  0  0  0  0  0  0  0  0  0
    7.8500   -1.7740   25.1580 C   0  0  0  0  0  0  0  0  0  0  0  0
    8.3910   -3.0530   25.0540 C   0  0  0  0  0  0  0  0  0  0  0  0
    8.0160   -4.1540   25.9340 N   0  0  0  0  0  0  0  0  0  0  0  0
    6.8130   -4.3050   26.6300 C   0  0  0  0  0  0  0  0  0  0  0  0
    6.4290   -5.4590   27.5820 C   0  0  0  0  0  0  0  0  0  0  0  0
    5.1660   -6.2500   27.2680 C   0  0  0  0  0  0  0  0  0  0  0  0
    5.9390   -3.4300   26.4840 O   0  0  0  0  0  0  0  0  0  0  0  0
    9.3560   -3.1970   24.0360 C   0  0  0  0  0  0  0  0  0  0  0  0
    9.7360   -2.1290   23.1620 C   0  0  0  0  0  0  0  0  0  0  0  0
   10.6720    1.1270   22.9730 C   0  0  0  0  0  0  0  0  0  0  0  0
   11.8820    0.2650   23.3570 C   0  0  1  0  0  0  0  0  0  0  0  0
   12.0270   -0.2320   24.6030 C   0  0  0  0  0  0  0  0  0  0  0  0
   13.3910   -1.2370   24.7730 S   0  0  0  0  0  0  0  0  0  0  0  0
   13.8090   -1.0530   23.1300 C   0  0  0  0  0  0  0  0  0  0  0  0
   12.9100   -0.2450   22.5200 C   0  0  0  0  0  0  0  0  0  0  0  0
    7.8490   -0.3690   20.6370 C   0  0  0  0  0  0  0  0  0  0  0  0
    7.1120    0.0810   19.5320 N   0  0  0  0  0  0  0  0  0  0  0  0
    7.4810   -0.2060   18.2390 N   0  0  0  0  0  0  0  0  0  0  0  0
    6.7020    0.3330   17.4130 N   0  0  0  0  0  0  0  0  0  0  0  0
    5.6900    1.0770   18.1700 C   0  0  0  0  0  0  0  0  0  0  0  0
    6.0030    0.8890   19.5200 C   0  0  0  0  0  0  0  0  0  0  0  0
    5.2120    1.4750   20.5440 C   0  0  0  0  0  0  0  0  0  0  0  0
    4.1200    2.2470   20.2000 C   0  0  0  0  0  0  0  0  0  0  0  0
    3.8060    2.4500   18.8160 C   0  0  0  0  0  0  0  0  0  0  0  0
    4.5970    1.8630   17.8080 C   0  0  0  0  0  0  0  0  0  0  0  0
  2  1  1  0
  3  2  1  0
  4  3  1  0
  5  4  1  0
  6  5  1  0
  7  6  1  0
  8  7  1  0
  9  8  1  0
 10  9  1  0
 11 10  1  0
 12  9  1  0
 13  7  1  0
 14 13  1  0
 14  4  1  0
 15  3  1  0
 16 15  1  6
 17 16  1  0
 18 17  1  0
 19 18  1  0
 20 19  1  0
 20 16  1  0
 21  2  1  0
 22 21  1  0
 23 22  1  0
 24 23  1  0
 25 24  1  0
 26 25  1  0
 26 22  1  0
 27 26  1  0
 28 27  1  0
 29 28  1  0
 30 29  1  0
 30 25  1  0
M  END
