
     RDKit          3D

 26 29  0  0  0  0  0  0  0  0999 V2000
    9.5720   -1.7300   22.9910 N   0  0  0  0  0  0  0  0  0  0  0  0
   11.1740   -2.7040   24.5900 C   0  0  0  0  0  0  0  0  0  0  0  0
    5.5750   -2.6910   20.5570 O   0  0  0  0  0  0  0  0  0  0  0  0
   12.4360   -2.8610   25.1140 C   0  0  0  0  0  0  0  0  0  0  0  0
    7.0010   -1.4950   21.8140 N   0  0  0  0  0  0  0  0  0  0  0  0
    6.5670    1.0760   16.9110 O   0  0  0  0  0  0  0  0  0  0  0  0
   13.4940   -2.2330   24.4820 C   0  0  0  0  0  0  0  0  0  0  0  0
    4.9790    1.6890   18.3900 N   0  0  0  0  0  0  0  0  0  0  0  0
   13.2810   -1.4660   23.3480 C   0  0  0  0  0  0  0  0  0  0  0  0
   12.0020   -1.2990   22.8330 C   0  0  0  0  0  0  0  0  0  0  0  0
   10.9110   -1.9090   23.4510 C   0  0  0  0  0  0  0  0  0  0  0  0
    8.7680   -2.9300   22.7230 C   0  0  0  0  0  0  0  0  0  0  0  0
    7.2820   -2.5940   22.7480 C   0  0  0  0  0  0  0  0  0  0  0  0
    7.8120   -0.2920   22.0540 C   0  0  0  0  0  0  0  0  0  0  0  0
    9.2960   -0.6450   22.0410 C   0  0  0  0  0  0  0  0  0  0  0  0
    6.0910   -1.6170   20.8310 C   0  0  0  0  0  0  0  0  0  0  0  0
    5.7020   -0.4150   20.0400 C   0  0  0  0  0  0  0  0  0  0  0  0
    6.2980   -0.2250   18.8360 C   0  0  0  0  0  0  0  0  0  0  0  0
    5.9730    0.8480   17.9630 C   0  0  0  0  0  0  0  0  0  0  0  0
    4.3160    1.5670   19.6050 C   0  0  0  0  0  0  0  0  0  0  0  0
    3.2980    2.4570   19.9510 C   0  0  0  0  0  0  0  0  0  0  0  0
    2.6280    2.2990   21.1530 C   0  0  0  0  0  0  0  0  0  0  0  0
    2.9780    1.2880   22.0230 C   0  0  0  0  0  0  0  0  0  0  0  0
    3.9910    0.3990   21.6990 C   0  0  0  0  0  0  0  0  0  0  0  0
    4.6620    0.5150   20.4790 C   0  0  0  0  0  0  0  0  0  0  0  0
   10.1450   -3.3710   25.1650 F   0  0  0  0  0  0  0  0  0  0  0  0
  4  2  2  0
  7  4  1  0
  9  7  2  0
 10  9  1  0
 11  1  1  0
 11 10  2  0
 11  2  1  0
 12  1  1  0
 13 12  1  0
 13  5  1  0
 14  5  1  0
 15 14  1  0
 15  1  1  0
 16  3  2  0
 16  5  1  0
 17 16  1  0
 18 17  2  0
 19  8  1  0
 19 18  1  0
 19  6  2  0
 20  8  1  0
 21 20  2  0
 22 21  1  0
 23 22  2  0
 24 23  1  0
 25 24  2  0
 25 20  1  0
 25 17  1  0
 26  2  1  0
M  END
