
     RDKit          3D

 22 25  0  0  0  0  0  0  0  0999 V2000
    5.6140    0.5500   19.2770 N   0  0  0  0  0  0  0  0  0  0  0  0
    7.2580   -0.1310   20.8290 N   0  0  0  0  0  0  0  0  0  0  0  0
    6.7810    0.4840   17.4190 N   0  0  0  0  0  0  0  0  0  0  0  0
    4.8730    2.0630   21.1720 C   0  0  0  0  0  0  0  0  0  0  0  0
   12.8900   -0.0140   23.4470 C   0  0  0  0  0  0  0  0  0  0  0  0
    9.2270    0.8910   20.9820 O   0  0  0  0  0  0  0  0  0  0  0  0
    6.9050    0.3170   19.5900 C   0  0  1  0  0  0  0  0  0  0  0  0
   11.9260    0.5830   24.2390 C   0  0  0  0  0  0  0  0  0  0  0  0
    8.7130   -0.7510   22.6790 C   0  0  2  0  0  0  0  0  0  0  0  0
    7.8220   -0.2210   23.8240 C   0  0  0  0  0  0  0  0  0  0  0  0
    8.3430    1.1080   24.3040 C   0  0  0  0  0  0  0  0  0  0  0  0
    4.5780    0.9260   20.2570 C   0  0  1  0  0  0  0  0  0  0  0  0
   10.1850   -0.5530   22.9860 C   0  0  1  0  0  0  0  0  0  0  0  0
    5.5910    0.6470   17.9180 C   0  0  0  0  0  0  0  0  0  0  0  0
    3.8590    2.2180   20.0840 C   0  0  0  0  0  0  0  0  0  0  0  0
   11.1720   -1.1700   22.2190 C   0  0  0  0  0  0  0  0  0  0  0  0
   12.5010   -0.8840   22.4540 C   0  0  0  0  0  0  0  0  0  0  0  0
    7.6360    0.2750   18.4870 N   0  0  0  0  0  0  0  0  0  0  0  0
    9.6940    1.0010   24.8000 O   0  0  0  0  0  0  0  0  0  0  0  0
    8.4880   -0.0100   21.3590 C   0  0  1  0  0  0  0  0  0  0  0  0
   10.5840    0.3240   23.9980 C   0  0  0  0  0  0  0  0  0  0  0  0
   13.7150   -1.6470   21.4650 Cl  0  0  0  0  0  0  0  0  0  0  0  0
  7  2  1  6
  7  1  1  0
  8  5  1  0
  9 10  1  1
 11 10  1  0
 12  4  1  0
 12  1  1  6
 13  9  1  0
 14  3  1  0
 14  1  1  0
 15 12  1  0
 15  4  1  0
 13 16  1  6
 17 16  1  0
 17  5  1  0
 18  7  1  0
 18  3  1  0
 19 11  1  0
 20  6  1  1
 20  2  1  0
 20  9  1  0
 21 19  1  0
 21 13  1  0
 21  8  1  0
 22 17  1  0
M  END
$$$$
