
     RDKit          3D

  9  9  0  0  0  0  0  0  0  0999 V2000
   -3.5370    9.0670  -12.9260 C   0  0  0  0  0  0  0  0  0  0  0  0
   -2.5430    9.6830  -13.1770 O   0  0  0  0  0  0  0  0  0  0  0  0
   -4.8750    9.6900  -13.2220 O   0  0  0  0  0  0  0  0  0  0  0  0
   -5.7540   10.6400  -12.3690 C   0  0  1  0  0  0  0  0  0  0  0  0
   -5.4770   12.0010  -12.0540 C   0  0  0  0  0  0  0  0  0  0  0  0
   -6.4090   12.8030  -11.3170 C   0  0  0  0  0  0  0  0  0  0  0  0
   -7.6540   12.3190  -10.9000 C   0  0  0  0  0  0  0  0  0  0  0  0
   -7.9710   10.9960  -11.2240 C   0  0  0  0  0  0  0  0  0  0  0  0
   -7.0670   10.1760  -11.9590 C   0  0  0  0  0  0  0  0  0  0  0  0
  2  1  1  0
  3  1  1  0
  4  3  1  6
  5  4  1  0
  6  5  1  0
  7  6  1  0
  8  7  1  0
  9  4  1  0
  9  8  1  0
M  END
$$$$
