
     RDKit          3D

 19 21  0  0  0  0  0  0  0  0999 V2000
    7.1290   -4.5280   21.2640 N   0  0  0  0  0  0  0  0  0  0  0  0
    7.3830   -2.9590   19.3720 C   0  0  0  0  0  0  0  0  0  0  0  0
    5.5990   -4.4980   19.6300 O   0  0  0  0  0  0  0  0  0  0  0  0
    6.6320   -4.0480   20.1070 C   0  0  0  0  0  0  0  0  0  0  0  0
   10.0140   -2.3290   23.6720 N   0  0  0  0  0  0  0  0  0  0  0  0
    6.3020   -5.3960   22.1110 C   0  0  0  0  0  0  0  0  0  0  0  0
    7.1490   -6.3110   22.9720 C   0  0  0  0  0  0  0  0  0  0  0  0
    8.0110   -5.4950   23.9380 C   0  0  0  0  0  0  0  0  0  0  0  0
    8.3820   -4.1420   23.3220 C   0  0  2  0  0  0  0  0  0  0  0  0
    8.4590   -4.2790   21.8130 C   0  0  0  0  0  0  0  0  0  0  0  0
    9.6520   -3.5520   23.8940 C   0  0  0  0  0  0  0  0  0  0  0  0
   11.2320   -2.0560   24.2920 C   0  0  0  0  0  0  0  0  0  0  0  0
   11.9190   -0.8480   24.2390 C   0  0  0  0  0  0  0  0  0  0  0  0
   13.1210   -0.7460   24.9050 C   0  0  0  0  0  0  0  0  0  0  0  0
   13.6520   -1.8110   25.6200 C   0  0  0  0  0  0  0  0  0  0  0  0
   12.9840   -3.0120   25.6940 C   0  0  0  0  0  0  0  0  0  0  0  0
   11.7700   -3.1230   25.0200 C   0  0  0  0  0  0  0  0  0  0  0  0
   10.7090   -4.4920   24.9200 S   0  0  0  0  0  0  0  0  0  0  0  0
    8.8140   -3.6420   18.5130 S   0  0  0  0  0  0  0  0  0  0  0  0
  4  3  2  0
  4  2  1  0
  4  1  1  0
  6  1  1  0
  7  6  1  0
  8  7  1  0
  9  8  1  0
 10  1  1  0
 10  9  1  0
  9 11  1  1
 11  5  2  0
 12  5  1  0
 13 12  2  0
 14 13  1  0
 15 14  2  0
 16 15  1  0
 17 16  2  0
 17 12  1  0
 18 11  1  0
 18 17  1  0
  2 19  1  0
M  END
