
     RDKit          3D

 23 25  0  0  0  0  0  0  0  0999 V2000
    9.5680    0.9360   21.0600 O   0  0  0  0  0  0  0  0  0  0  0  0
    9.2230   -0.2090   21.3390 C   0  0  0  0  0  0  0  0  0  0  0  0
    8.0720   -0.7680   20.9050 N   0  0  0  0  0  0  0  0  0  0  0  0
    7.1960   -0.2370   19.9340 C   0  0  1  0  0  0  0  0  0  0  0  0
    5.9710    0.3700   20.3450 C   0  0  0  0  0  0  0  0  0  0  0  0
    5.5250    0.4170   21.6890 C   0  0  0  0  0  0  0  0  0  0  0  0
    4.3620    1.0480   22.0210 C   0  0  0  0  0  0  0  0  0  0  0  0
    3.5870    1.6580   21.0510 C   0  0  0  0  0  0  0  0  0  0  0  0
    3.9680    1.6360   19.7400 C   0  0  0  0  0  0  0  0  0  0  0  0
    5.1670    0.9970   19.3510 C   0  0  0  0  0  0  0  0  0  0  0  0
    5.6340    0.9730   18.0190 C   0  0  0  0  0  0  0  0  0  0  0  0
    6.7790    0.4290   17.6440 N   0  0  0  0  0  0  0  0  0  0  0  0
    7.5230   -0.1590   18.5870 C   0  0  0  0  0  0  0  0  0  0  0  0
   10.1080   -1.1190   22.1750 C   0  0  0  0  0  0  0  0  0  0  0  0
    9.3620   -1.9390   23.1200 N   0  0  0  0  0  0  0  0  0  0  0  0
    8.7460   -1.1230   24.1630 C   0  0  0  0  0  0  0  0  0  0  0  0
    7.8300   -1.9810   25.0200 C   0  0  0  0  0  0  0  0  0  0  0  0
   10.2190   -2.9390   23.7590 C   0  0  0  0  0  0  0  0  0  0  0  0
    9.3700   -3.8820   24.6100 C   0  0  0  0  0  0  0  0  0  0  0  0
    8.5720   -3.1210   25.5870 N   0  0  0  0  0  0  0  0  0  0  0  0
    8.4270   -3.4490   26.8990 C   0  0  0  0  0  0  0  0  0  0  0  0
    7.7370   -2.7630   27.6450 O   0  0  0  0  0  0  0  0  0  0  0  0
    9.1030   -4.6890   27.4010 C   0  0  0  0  0  0  0  0  0  0  0  0
  2  1  1  0
  3  2  1  0
  4  3  1  1
  5  4  1  0
  6  5  1  0
  7  6  1  0
  8  7  1  0
  9  8  1  0
 10  9  1  0
 10  5  1  0
 11 10  1  0
 12 11  1  0
 13 12  1  0
 13  4  1  0
 14  2  1  0
 15 14  1  0
 16 15  1  0
 17 16  1  0
 18 15  1  0
 19 18  1  0
 20 19  1  0
 20 17  1  0
 21 20  1  0
 22 21  1  0
 23 21  1  0
M  END
$$$$
