
     RDKit          3D

 21 22  0  0  0  0  0  0  0  0999 V2000
    8.2470   -3.1070   20.4170 C   0  0  0  0  0  0  0  0  0  0  0  0
    8.1830   -1.6960   20.9730 C   0  0  0  0  0  0  0  0  0  0  0  0
    7.3100   -0.9260   20.6010 O   0  0  0  0  0  0  0  0  0  0  0  0
    9.0900   -1.3520   21.9240 N   0  0  0  0  0  0  0  0  0  0  0  0
    8.7310   -0.2470   22.8300 C   0  0  2  0  0  0  0  0  0  0  0  0
    8.6720    1.1300   22.1680 C   0  0  1  0  0  0  0  0  0  0  0  0
    9.4450    1.4360   21.2640 O   0  0  0  0  0  0  0  0  0  0  0  0
    7.6590    1.9160   22.5760 N   0  0  0  0  0  0  0  0  0  0  0  0
    7.8320    3.2840   22.7540 N   0  0  0  0  0  0  0  0  0  0  0  0
    8.8590    4.0520   23.1480 C   0  0  0  0  0  0  0  0  0  0  0  0
    8.9480    5.2410   22.8330 O   0  0  0  0  0  0  0  0  0  0  0  0
    9.9000    3.3670   23.9780 C   0  0  0  0  0  0  0  0  0  0  0  0
   10.3520   -2.0950   22.0560 C   0  0  0  0  0  0  0  0  0  0  0  0
   11.4340   -1.2240   22.6320 C   0  0  1  0  0  0  0  0  0  0  0  0
   12.7370   -1.2590   22.1400 C   0  0  0  0  0  0  0  0  0  0  0  0
   13.6770   -0.3420   22.5820 C   0  0  0  0  0  0  0  0  0  0  0  0
   13.3370    0.5850   23.5410 C   0  0  0  0  0  0  0  0  0  0  0  0
   12.0560    0.6100   24.0660 C   0  0  0  0  0  0  0  0  0  0  0  0
   11.0880   -0.2810   23.6090 C   0  0  1  0  0  0  0  0  0  0  0  0
    9.6510   -0.2180   24.0570 C   0  0  0  0  0  0  0  0  0  0  0  0
    7.7470   -3.1560   18.7660 S   0  0  0  0  0  0  0  0  0  0  0  0
  2  1  1  0
  3  2  1  0
  4  2  1  0
  5  4  1  0
  6  5  1  0
  6  7  1  6
  8  6  1  0
  9  8  1  0
 10  9  1  0
 11 10  1  0
 12 10  1  0
 13  4  1  0
 14 13  1  6
 15 14  1  0
 16 15  1  0
 17 16  1  0
 18 17  1  0
 19 18  1  6
 19 14  1  0
  5 20  1  1
 20 19  1  0
  1 21  1  0
M  END
