
     RDKit          3D

 25 28  0  0  0  0  0  0  0  0999 V2000
    6.6570    0.9060   16.8100 O   0  0  0  0  0  0  0  0  0  0  0  0
    6.1290    0.7460   17.9130 C   0  0  0  0  0  0  0  0  0  0  0  0
    6.5000   -0.2820   18.8320 C   0  0  0  0  0  0  0  0  0  0  0  0
    5.1660    1.6160   18.3470 N   0  0  0  0  0  0  0  0  0  0  0  0
    4.5670    1.5670   19.5960 C   0  0  0  0  0  0  0  0  0  0  0  0
    3.5830    2.4900   19.9430 C   0  0  0  0  0  0  0  0  0  0  0  0
    2.9670    2.4020   21.1790 C   0  0  0  0  0  0  0  0  0  0  0  0
    3.3190    1.4100   22.0680 C   0  0  0  0  0  0  0  0  0  0  0  0
    4.3060    0.4930   21.7450 C   0  0  0  0  0  0  0  0  0  0  0  0
    4.9420    0.5570   20.5060 C   0  0  0  0  0  0  0  0  0  0  0  0
    5.9630   -0.3970   20.0760 C   0  0  0  0  0  0  0  0  0  0  0  0
    6.3910   -1.5530   20.9430 C   0  0  0  0  0  0  0  0  0  0  0  0
    5.5920   -2.4640   21.1340 O   0  0  0  0  0  0  0  0  0  0  0  0
    7.6470   -1.5920   21.4420 N   0  0  0  0  0  0  0  0  0  0  0  0
    8.0650   -2.7230   22.2850 C   0  0  0  0  0  0  0  0  0  0  0  0
    8.7550   -2.2250   23.5430 C   0  0  0  0  0  0  0  0  0  0  0  0
    9.8540   -1.3160   23.1960 N   0  0  0  0  0  0  0  0  0  0  0  0
    9.4650   -0.1820   22.3490 C   0  0  0  0  0  0  0  0  0  0  0  0
    8.7350   -0.6590   21.0950 C   0  0  0  0  0  0  0  0  0  0  0  0
   11.1830   -1.6270   23.4880 C   0  0  0  0  0  0  0  0  0  0  0  0
   11.5140   -2.2620   24.6910 C   0  0  0  0  0  0  0  0  0  0  0  0
   12.8360   -2.5870   24.9640 C   0  0  0  0  0  0  0  0  0  0  0  0
   13.8310   -2.2850   24.0590 C   0  0  0  0  0  0  0  0  0  0  0  0
   13.5130   -1.6580   22.8700 C   0  0  0  0  0  0  0  0  0  0  0  0
   12.2000   -1.3230   22.5770 C   0  0  0  0  0  0  0  0  0  0  0  0
  2  1  2  0
  3  2  1  0
  4  2  1  0
  5  4  1  0
  6  5  2  0
  7  6  1  0
  8  7  2  0
  9  8  1  0
 10  9  2  0
 10  5  1  0
 11 10  1  0
 11  3  2  0
 12 11  1  0
 13 12  2  0
 14 12  1  0
 15 14  1  0
 16 15  1  0
 17 16  1  0
 18 17  1  0
 19 14  1  0
 19 18  1  0
 20 17  1  0
 21 20  2  0
 22 21  1  0
 23 22  2  0
 24 23  1  0
 25 24  2  0
 25 20  1  0
M  END
