
     RDKit          3D

 23 24  0  0  0  0  0  0  0  0999 V2000
    8.9870    0.6310   20.9080 O   0  0  0  0  0  0  0  0  0  0  0  0
    8.3540   -0.3780   21.2220 C   0  0  0  0  0  0  0  0  0  0  0  0
    7.1350   -0.6780   20.7400 N   0  0  0  0  0  0  0  0  0  0  0  0
    6.4930    0.0240   19.6950 C   0  0  0  0  0  0  0  0  0  0  0  0
    5.3800    0.8280   19.9750 C   0  0  1  0  0  0  0  0  0  0  0  0
    4.8650    1.0160   21.3810 C   0  0  0  0  0  0  0  0  0  0  0  0
    4.8100    1.5190   18.9130 C   0  0  0  0  0  0  0  0  0  0  0  0
    5.3600    1.4070   17.6520 C   0  0  0  0  0  0  0  0  0  0  0  0
    6.4300    0.6510   17.3750 N   0  0  0  0  0  0  0  0  0  0  0  0
    6.9780   -0.0280   18.3890 C   0  0  0  0  0  0  0  0  0  0  0  0
    8.8870   -1.3920   22.2140 C   0  0  0  0  0  0  0  0  0  0  0  0
   10.2040   -0.9170   22.7770 C   0  0  1  0  0  0  0  0  0  0  0  0
   11.4000   -1.4010   22.2610 C   0  0  0  0  0  0  0  0  0  0  0  0
   12.5960   -0.8930   22.7140 C   0  0  2  0  0  0  0  0  0  0  0  0
   14.0800   -1.5720   22.1080 Cl  0  0  0  0  0  0  0  0  0  0  0  0
   12.6440    0.0850   23.6860 C   0  0  0  0  0  0  0  0  0  0  0  0
   11.4620    0.5480   24.2410 C   0  0  0  0  0  0  0  0  0  0  0  0
   10.2500    0.0650   23.7680 C   0  0  1  0  0  0  0  0  0  0  0  0
    9.0360    0.6060   24.1170 O   0  0  0  0  0  0  0  0  0  0  0  0
    8.5810    0.4890   25.4810 C   0  0  0  0  0  0  0  0  0  0  0  0
    7.0930    0.7680   25.5260 C   0  0  0  0  0  0  0  0  0  0  0  0
    6.2050   -0.3240   24.9290 C   0  0  0  0  0  0  0  0  0  0  0  0
    4.7310    0.0030   25.0530 C   0  0  0  0  0  0  0  0  0  0  0  0
  2  1  1  0
  3  2  1  0
  4  3  1  0
  5  4  1  0
  5  6  1  1
  7  5  1  0
  8  7  1  0
  9  8  1  0
 10  9  1  0
 10  4  1  0
 11  2  1  0
 12 11  1  6
 13 12  1  0
 14 13  1  0
 14 15  1  1
 16 14  1  0
 17 16  1  0
 18 12  1  0
 18 17  1  0
 18 19  1  6
 20 19  1  0
 21 20  1  0
 22 21  1  0
 23 22  1  0
M  END
$$$$
