
     RDKit          3D

 15 14  0  0  0  0  0  0  0  0999 V2000
    4.6390   -4.4240   23.4520 O   0  0  0  0  0  0  0  0  0  0  0  0
    4.5650   -5.5150   22.8890 C   0  0  0  0  0  0  0  0  0  0  0  0
    5.4980   -5.9430   22.0170 N   0  0  0  0  0  0  0  0  0  0  0  0
    6.6630   -5.1370   21.6300 C   0  0  0  0  0  0  0  0  0  0  0  0
    6.8050   -4.6320   20.1090 C   0  0  0  0  0  0  0  0  0  0  0  0
    5.7660   -4.8690   19.4940 C   0  0  0  0  0  0  0  0  0  0  0  0
    3.3360   -6.4070   23.1190 C   0  0  1  0  0  0  0  0  0  0  0  0
    3.3760   -7.0610   24.5130 C   0  0  2  0  0  0  0  0  0  0  0  0
    4.5680   -7.8300   24.6420 O   0  0  0  0  0  0  0  0  0  0  0  0
    2.1870   -7.9610   24.7820 C   0  0  0  0  0  0  0  0  0  0  0  0
    2.1380   -5.5770   23.0430 N   0  0  0  0  0  0  0  0  0  0  0  0
    1.0090   -5.9630   22.4230 C   0  0  0  0  0  0  0  0  0  0  0  0
    0.9360   -7.0150   21.7880 O   0  0  0  0  0  0  0  0  0  0  0  0
   -0.1590   -5.0270   22.5450 C   0  0  0  0  0  0  0  0  0  0  0  0
    8.1510   -3.8740   19.0640 S   0  0  0  0  0  0  0  0  0  0  0  0
  2  1  2  0
  3  2  1  0
  4  3  1  0
  5  4  1  0
  6  5  2  0
  7  2  1  0
  8  7  1  0
  9  8  1  0
  8 10  1  6
  7 11  1  1
 12 11  1  0
 13 12  2  0
 14 12  1  0
  5 15  1  0
M  END
