
     RDKit          3D

 17 18  0  0  0  0  0  0  0  0999 V2000
   11.8050    0.8720   23.7560 N   0  0  0  0  0  0  0  0  0  0  0  0
   10.9910    0.1760   23.3740 C   0  0  0  0  0  0  0  0  0  0  0  0
    9.9160   -0.6580   22.8100 C   0  0  1  0  0  0  0  0  0  0  0  0
   10.5360   -1.9790   22.3400 C   0  0  0  0  0  0  0  0  0  0  0  0
   10.5050   -2.8150   23.4920 O   0  0  0  0  0  0  0  0  0  0  0  0
    9.2440   -2.5680   24.1150 C   0  0  0  0  0  0  0  0  0  0  0  0
    8.9600   -1.0850   23.9560 C   0  0  0  0  0  0  0  0  0  0  0  0
    9.3050    0.1650   21.6590 C   0  0  2  0  0  0  0  0  0  0  0  0
   10.0260    0.9050   21.0150 O   0  0  0  0  0  0  0  0  0  0  0  0
    7.9720    0.1800   21.5480 N   0  0  0  0  0  0  0  0  0  0  0  0
    7.1830    0.3410   20.3850 C   0  0  0  0  0  0  0  0  0  0  0  0
    5.8270    0.6570   20.5370 C   0  0  1  0  0  0  0  0  0  0  0  0
    5.2140    0.8940   21.8930 C   0  0  0  0  0  0  0  0  0  0  0  0
    7.6800    0.1550   19.0900 C   0  0  0  0  0  0  0  0  0  0  0  0
    6.9530    0.3300   17.9820 N   0  0  0  0  0  0  0  0  0  0  0  0
    5.6780    0.6970   18.1420 C   0  0  0  0  0  0  0  0  0  0  0  0
    5.0810    0.8560   19.3780 C   0  0  0  0  0  0  0  0  0  0  0  0
  2  1  1  0
  3  2  1  1
  4  3  1  0
  5  4  1  0
  6  5  1  0
  7  6  1  0
  7  3  1  0
  8  3  1  0
  8  9  1  1
 10  8  1  0
 11 10  1  0
 12 11  1  0
 12 13  1  1
 14 11  1  0
 15 14  1  0
 16 15  1  0
 17 16  1  0
 17 12  1  0
M  END
$$$$
