
     RDKit          3D

 30 31  0  0  0  0  0  0  0  0999 V2000
    7.4290   -1.4330   21.7320 N   0  0  0  0  0  0  0  0  0  0  0  0
    7.1010   -4.4830   20.0560 C   0  0  0  0  0  0  0  0  0  0  0  0
    5.4560   -2.3190   21.0800 O   0  0  0  0  0  0  0  0  0  0  0  0
    7.2130   -3.8640   21.4120 C   0  0  0  0  0  0  0  0  0  0  0  0
    7.8530    1.6160   22.9560 N   0  0  0  0  0  0  0  0  0  0  0  0
    8.9350    1.2790   21.0090 O   0  0  0  0  0  0  0  0  0  0  0  0
    6.6180   -2.4840   21.4130 C   0  0  0  0  0  0  0  0  0  0  0  0
    6.5010    0.3210   17.6930 N   0  0  0  0  0  0  0  0  0  0  0  0
    8.9550    4.9930   22.4940 O   0  0  0  0  0  0  0  0  0  0  0  0
    6.9710   -0.0550   21.4310 C   0  0  1  0  0  0  0  0  0  0  0  0
    8.0280    1.0000   21.7920 C   0  0  0  0  0  0  0  0  0  0  0  0
    8.5950    2.8160   23.2980 C   0  0  0  0  0  0  0  0  0  0  0  0
    7.9770    4.0040   22.6300 C   0  0  0  0  0  0  0  0  0  0  0  0
    8.3610    6.2310   22.2260 C   0  0  0  0  0  0  0  0  0  0  0  0
    6.3150    0.2390   20.0930 C   0  0  0  0  0  0  0  0  0  0  0  0
    6.9110   -0.1120   18.8890 C   0  0  0  0  0  0  0  0  0  0  0  0
    5.4280    1.1180   17.6660 C   0  0  0  0  0  0  0  0  0  0  0  0
    4.7390    1.5050   18.8000 C   0  0  0  0  0  0  0  0  0  0  0  0
    5.1950    1.0540   20.0230 C   0  0  0  0  0  0  0  0  0  0  0  0
    8.6790   -1.6230   22.4140 C   0  0  0  0  0  0  0  0  0  0  0  0
    9.8770   -1.6180   21.7060 C   0  0  0  0  0  0  0  0  0  0  0  0
   11.0820   -1.7250   22.3770 C   0  0  0  0  0  0  0  0  0  0  0  0
   11.1280   -1.8550   23.7650 C   0  0  0  0  0  0  0  0  0  0  0  0
    9.9220   -1.8950   24.4600 C   0  0  0  0  0  0  0  0  0  0  0  0
    8.7100   -1.7680   23.8010 C   0  0  0  0  0  0  0  0  0  0  0  0
   12.4640   -1.8550   24.5220 C   0  0  0  0  0  0  0  0  0  0  0  0
   13.6660   -1.9250   23.5790 C   0  0  0  0  0  0  0  0  0  0  0  0
   12.5700   -3.0470   25.4940 C   0  0  0  0  0  0  0  0  0  0  0  0
   12.5860   -0.5570   25.3170 C   0  0  0  0  0  0  0  0  0  0  0  0
    8.2510   -3.7340   18.8660 S   0  0  0  0  0  0  0  0  0  0  0  0
  4  2  1  0
  7  4  1  0
  7  3  2  0
  7  1  1  0
 10  1  1  0
 10 11  1  6
 11  6  2  0
 11  5  1  0
 12  5  1  0
 13 12  1  0
 13  9  1  0
 14  9  1  0
 15 10  1  0
 16 15  1  0
 16  8  2  0
 17  8  1  0
 18 17  2  0
 19 18  1  0
 19 15  2  0
 20  1  1  0
 21 20  2  0
 22 21  1  0
 23 22  2  0
 24 23  1  0
 25 24  2  0
 25 20  1  0
 26 23  1  0
 26 27  1  0
 28 26  1  0
 29 26  1  0
  2 30  1  0
M  END
