
     RDKit          3D

 30 31  0  0  0  0  0  0  0  0999 V2000
    9.0120    1.2360   21.0310 O   0  0  0  0  0  0  0  0  0  0  0  0
    8.1050    0.9570   21.8140 C   0  0  1  0  0  0  0  0  0  0  0  0
    7.9320    1.5710   22.9800 N   0  0  0  0  0  0  0  0  0  0  0  0
    8.6760    2.7690   23.3250 C   0  0  0  0  0  0  0  0  0  0  0  0
    8.0610    3.9590   22.6600 C   0  0  0  0  0  0  0  0  0  0  0  0
    9.0400    4.9460   22.5250 O   0  0  0  0  0  0  0  0  0  0  0  0
    8.4490    6.1870   22.2610 C   0  0  0  0  0  0  0  0  0  0  0  0
    7.0450   -0.0940   21.4510 C   0  0  1  0  0  0  0  0  0  0  0  0
    6.3890    0.2040   20.1140 C   0  0  1  0  0  0  0  0  0  0  0  0
    5.2710    1.0210   20.0470 C   0  0  0  0  0  0  0  0  0  0  0  0
    4.8160    1.4760   18.8250 C   0  0  0  0  0  0  0  0  0  0  0  0
    5.5040    1.0900   17.6890 C   0  0  0  0  0  0  0  0  0  0  0  0
    6.5750    0.2920   17.7140 N   0  0  0  0  0  0  0  0  0  0  0  0
    6.9840   -0.1460   18.9090 C   0  0  0  0  0  0  0  0  0  0  0  0
    7.5010   -1.4750   21.7480 N   0  0  0  0  0  0  0  0  0  0  0  0
    6.6880   -2.5230   21.4270 C   0  0  1  0  0  0  0  0  0  0  0  0
    5.5250   -2.3550   21.0950 O   0  0  0  0  0  0  0  0  0  0  0  0
    7.2800   -3.9050   21.4230 C   0  0  0  0  0  0  0  0  0  0  0  0
    7.1660   -4.5200   20.0650 C   0  0  0  0  0  0  0  0  0  0  0  0
    8.7510   -1.6680   22.4290 C   0  0  0  0  0  0  0  0  0  0  0  0
    8.7820   -1.8170   23.8160 C   0  0  0  0  0  0  0  0  0  0  0  0
    9.9940   -1.9480   24.4740 C   0  0  0  0  0  0  0  0  0  0  0  0
   11.2000   -1.9090   23.7790 C   0  0  2  0  0  0  0  0  0  0  0  0
   12.5370   -1.9130   24.5360 C   0  0  1  0  0  0  0  0  0  0  0  0
   12.6610   -0.6170   25.3340 C   0  0  0  0  0  0  0  0  0  0  0  0
   12.6400   -3.1080   25.5040 C   0  0  0  0  0  0  0  0  0  0  0  0
   13.7380   -1.9830   23.5920 C   0  0  0  0  0  0  0  0  0  0  0  0
   11.1540   -1.7760   22.3920 C   0  0  0  0  0  0  0  0  0  0  0  0
    9.9490   -1.6640   21.7210 C   0  0  0  0  0  0  0  0  0  0  0  0
    8.3170   -3.7700   18.8770 S   0  0  0  0  0  0  0  0  0  0  0  0
  2  1  1  6
  3  2  1  0
  4  3  1  0
  5  4  1  0
  6  5  1  0
  7  6  1  0
  8  2  1  0
  9  8  1  0
  9 10  1  6
 11 10  1  0
 12 11  1  0
 13 12  1  0
 14 13  1  0
 14  9  1  0
  8 15  1  6
 16 15  1  0
 16 17  1  6
 18 16  1  0
 19 18  1  0
 20 15  1  0
 21 20  1  0
 22 21  1  0
 23 22  1  1
 24 23  1  0
 24 25  1  1
 26 24  1  0
 27 24  1  0
 28 23  1  0
 29 20  1  0
 29 28  1  0
 19 30  1  0
M  END
$$$$
