
     RDKit          3D

 25 27  0  0  0  0  0  0  0  0999 V2000
    7.1290   -7.3900   30.1930 O   0  0  0  0  0  0  0  0  0  0  0  0
    6.8110   -6.7840   29.1780 C   0  0  0  0  0  0  0  0  0  0  0  0
    7.6910   -6.6130   28.1790 N   0  0  0  0  0  0  0  0  0  0  0  0
    7.4840   -5.9270   26.9880 N   0  0  0  0  0  0  0  0  0  0  0  0
    5.4970   -6.1680   28.9790 C   0  0  0  0  0  0  0  0  0  0  0  0
    5.2360   -5.4590   27.7950 C   0  0  0  0  0  0  0  0  0  0  0  0
    3.9750   -4.8840   27.6040 C   0  0  0  0  0  0  0  0  0  0  0  0
    2.9920   -5.0310   28.5710 C   0  0  0  0  0  0  0  0  0  0  0  0
    3.2520   -5.7360   29.7320 C   0  0  0  0  0  0  0  0  0  0  0  0
    4.5010   -6.2980   29.9480 C   0  0  0  0  0  0  0  0  0  0  0  0
    6.3100   -5.3610   26.7870 C   0  0  0  0  0  0  0  0  0  0  0  0
    6.2620   -4.6250   25.4670 C   0  0  0  0  0  0  0  0  0  0  0  0
    5.3380   -3.8590   25.1950 O   0  0  0  0  0  0  0  0  0  0  0  0
    7.2730   -4.8910   24.6170 N   0  0  0  0  0  0  0  0  0  0  0  0
    7.2880   -4.2170   23.4090 N   0  0  0  0  0  0  0  0  0  0  0  0
    7.8590   -3.0010   23.1880 C   0  0  0  0  0  0  0  0  0  0  0  0
    8.5560   -2.2140   24.2460 C   0  0  0  0  0  0  0  0  0  0  0  0
    6.7280   -4.7360   22.2740 C   0  0  0  0  0  0  0  0  0  0  0  0
    6.0160   -6.0440   22.2260 C   0  0  0  0  0  0  0  0  0  0  0  0
    6.9600   -3.7960   21.2740 C   0  0  0  0  0  0  0  0  0  0  0  0
    7.6730   -2.7150   21.8580 C   0  0  0  0  0  0  0  0  0  0  0  0
    6.5680   -3.8720   19.8620 C   0  0  0  0  0  0  0  0  0  0  0  0
    5.8190   -4.7660   19.4960 O   0  0  0  0  0  0  0  0  0  0  0  0
    7.1360   -2.8560   18.8950 C   0  0  0  0  0  0  0  0  0  0  0  0
    8.7250   -3.4690   18.4200 S   0  0  0  0  0  0  0  0  0  0  0  0
  2  1  1  0
  3  2  1  0
  4  3  1  0
  5  2  1  0
  6  5  1  0
  7  6  1  0
  8  7  1  0
  9  8  1  0
 10  9  1  0
 10  5  1  0
 11  6  1  0
 11  4  1  0
 12 11  1  0
 13 12  1  0
 14 12  1  0
 15 14  1  0
 16 15  1  0
 17 16  1  0
 18 15  1  0
 19 18  1  0
 20 18  1  0
 21 20  1  0
 21 16  1  0
 22 20  1  0
 23 22  1  0
 24 22  1  0
 24 25  1  0
M  END
$$$$
