
     RDKit          3D

 22 24  0  0  0  0  0  0  0  0999 V2000
    9.6120    1.6560   21.0310 N   0  0  0  0  0  0  0  0  0  0  0  0
    9.8470   -2.5370   23.8610 C   0  0  0  0  0  0  0  0  0  0  0  0
   10.3030   -1.1860   23.9640 O   0  0  0  0  0  0  0  0  0  0  0  0
   10.0610   -0.3340   22.9170 C   0  0  0  0  0  0  0  0  0  0  0  0
   10.8220    3.2110   22.2020 N   0  0  0  0  0  0  0  0  0  0  0  0
   11.3950    3.4560   24.3840 O   0  0  0  0  0  0  0  0  0  0  0  0
    9.3760   -0.6280   21.7470 C   0  0  0  0  0  0  0  0  0  0  0  0
    9.1700    0.4040   20.8490 C   0  0  0  0  0  0  0  0  0  0  0  0
   10.3020    1.9120   22.1550 C   0  0  0  0  0  0  0  0  0  0  0  0
   11.3950    3.8650   23.2340 C   0  0  0  0  0  0  0  0  0  0  0  0
   12.0590    5.1750   22.8620 C   0  0  0  0  0  0  0  0  0  0  0  0
   11.2780    6.3720   23.3550 C   0  0  0  0  0  0  0  0  0  0  0  0
   10.1870    6.8350   22.6270 C   0  0  0  0  0  0  0  0  0  0  0  0
    9.4910    7.9410   23.0160 C   0  0  0  0  0  0  0  0  0  0  0  0
    9.8580    8.6550   24.1800 C   0  0  0  0  0  0  0  0  0  0  0  0
    9.1790    9.8200   24.6110 C   0  0  0  0  0  0  0  0  0  0  0  0
    9.5720   10.4740   25.7450 C   0  0  0  0  0  0  0  0  0  0  0  0
   10.6410   10.0090   26.4960 C   0  0  0  0  0  0  0  0  0  0  0  0
   11.3210    8.8870   26.1190 C   0  0  0  0  0  0  0  0  0  0  0  0
   10.9550    8.1830   24.9430 C   0  0  0  0  0  0  0  0  0  0  0  0
   11.6460    7.0320   24.5010 C   0  0  0  0  0  0  0  0  0  0  0  0
   10.5410    0.9480   23.1420 C   0  0  0  0  0  0  0  0  0  0  0  0
  3  2  1  0
  4  3  1  0
  7  4  2  0
  8  7  1  0
  8  1  2  0
  9  1  1  0
  9  5  1  0
 10  5  1  0
 10  6  2  0
 11 10  1  0
 12 11  1  0
 13 12  2  0
 14 13  1  0
 15 14  2  0
 16 15  1  0
 17 16  2  0
 18 17  1  0
 19 18  2  0
 20 15  1  0
 20 19  1  0
 21 20  2  0
 21 12  1  0
 22  9  2  0
 22  4  1  0
M  END
