
     RDKit          3D

 17 18  0  0  0  0  0  0  0  0999 V2000
    6.8060   -3.7380   21.8200 N   0  0  0  0  0  0  0  0  0  0  0  0
    8.3970   -3.3620   20.1110 C   0  0  0  0  0  0  0  0  0  0  0  0
    6.1720   -4.1180   19.6610 O   0  0  0  0  0  0  0  0  0  0  0  0
    7.0010   -3.7840   20.4910 C   0  0  0  0  0  0  0  0  0  0  0  0
    3.4450   -2.0860   27.3000 C   0  0  0  0  0  0  0  0  0  0  0  0
    4.3810   -2.5340   26.2110 C   0  0  0  0  0  0  0  0  0  0  0  0
    5.8530   -4.4150   22.6120 C   0  0  0  0  0  0  0  0  0  0  0  0
    5.5050   -5.7500   22.4130 C   0  0  0  0  0  0  0  0  0  0  0  0
    4.5730   -6.3370   23.2500 C   0  0  0  0  0  0  0  0  0  0  0  0
    3.9890   -5.6200   24.2800 C   0  0  0  0  0  0  0  0  0  0  0  0
    4.3480   -4.2930   24.4720 C   0  0  0  0  0  0  0  0  0  0  0  0
    5.2800   -3.6840   23.6410 C   0  0  0  0  0  0  0  0  0  0  0  0
    2.3700   -3.7440   25.9490 C   0  0  0  0  0  0  0  0  0  0  0  0
    2.0770   -2.5500   26.8320 C   0  0  0  0  0  0  0  0  0  0  0  0
    3.7570   -3.5340   25.5180 N   0  0  0  0  0  0  0  0  0  0  0  0
    5.4860   -2.0890   25.9630 O   0  0  0  0  0  0  0  0  0  0  0  0
    8.7380   -3.4630   18.3350 S   0  0  0  0  0  0  0  0  0  0  0  0
  4  3  1  0
  4  2  1  0
  4  1  1  0
  6  5  1  0
  7  1  1  0
  8  7  1  0
  9  8  1  0
 10  9  1  0
 11 10  1  0
 12 11  1  0
 12  7  1  0
 14 13  1  0
 14  5  1  0
 15 13  1  0
 15 11  1  0
 15  6  1  0
 16  6  1  0
  2 17  1  0
M  END
$$$$
