
     RDKit          3D

 21 22  0  0  0  0  0  0  0  0999 V2000
   14.0370   -1.4210   21.1730 Cl  0  0  0  0  0  0  0  0  0  0  0  0
   12.9080   -0.6030   22.2190 C   0  0  0  0  0  0  0  0  0  0  0  0
   13.3740    0.3610   23.0890 C   0  0  0  0  0  0  0  0  0  0  0  0
   12.4850    0.9370   23.9820 C   0  0  0  0  0  0  0  0  0  0  0  0
   11.1500    0.5630   23.9790 C   0  0  0  0  0  0  0  0  0  0  0  0
   11.5740   -0.9700   22.1880 C   0  0  0  0  0  0  0  0  0  0  0  0
   10.6750   -0.3710   23.0670 C   0  0  0  0  0  0  0  0  0  0  0  0
    9.1740   -0.5930   22.9170 C   0  0  2  0  0  0  0  0  0  0  0  0
    8.7180   -1.9780   23.2140 N   0  0  0  0  0  0  0  0  0  0  0  0
    9.5970   -2.7370   24.1070 C   0  0  0  0  0  0  0  0  0  0  0  0
    7.3620   -1.9850   23.7600 C   0  0  0  0  0  0  0  0  0  0  0  0
    8.6140    0.0360   21.6280 C   0  0  0  0  0  0  0  0  0  0  0  0
    9.1160    1.0560   21.1720 O   0  0  0  0  0  0  0  0  0  0  0  0
    7.5410   -0.5760   21.0710 N   0  0  0  0  0  0  0  0  0  0  0  0
    6.7620   -0.0460   20.0160 C   0  0  0  0  0  0  0  0  0  0  0  0
    5.5580    0.6300   20.3050 C   0  0  0  0  0  0  0  0  0  0  0  0
    5.0000    0.7050   21.7030 C   0  0  0  0  0  0  0  0  0  0  0  0
    4.9000    1.2450   19.2450 C   0  0  0  0  0  0  0  0  0  0  0  0
    5.4370    1.1780   17.9750 C   0  0  0  0  0  0  0  0  0  0  0  0
    6.5750    0.5320   17.6870 N   0  0  0  0  0  0  0  0  0  0  0  0
    7.2060   -0.0760   18.6950 C   0  0  0  0  0  0  0  0  0  0  0  0
  2  1  1  0
  3  2  2  0
  4  3  1  0
  5  4  2  0
  6  2  1  0
  7  6  2  0
  7  5  1  0
  8  7  1  0
  9  8  1  0
 10  9  1  0
 11  9  1  0
  8 12  1  6
 13 12  2  0
 14 12  1  0
 15 14  1  0
 16 15  2  0
 17 16  1  0
 18 16  1  0
 19 18  2  0
 20 19  1  0
 21 20  2  0
 21 15  1  0
M  END
