
     RDKit          3D

  9  9  0  0  0  0  0  0  0  0999 V2000
   -2.8680    9.1950  -13.4340 C   0  0  0  0  0  0  0  0  0  0  0  0
   -3.2880    9.3460  -12.2680 O   0  0  0  0  0  0  0  0  0  0  0  0
   -3.2110   10.3800  -14.2630 O   0  0  0  0  0  0  0  0  0  0  0  0
   -4.8420   10.6710  -14.3730 C   0  0  2  0  0  0  0  0  0  0  0  0
   -5.7790   10.5230  -13.2690 C   0  0  0  0  0  0  0  0  0  0  0  0
   -7.2280   10.7010  -13.4170 C   0  0  0  0  0  0  0  0  0  0  0  0
   -7.7650   10.9970  -14.6430 C   0  0  0  0  0  0  0  0  0  0  0  0
   -6.8730   11.1310  -15.7480 C   0  0  0  0  0  0  0  0  0  0  0  0
   -5.4690   10.9820  -15.5910 C   0  0  0  0  0  0  0  0  0  0  0  0
  2  1  1  0
  3  1  1  0
  4  3  1  6
  5  4  1  0
  6  5  1  0
  7  6  1  0
  8  7  1  0
  9  8  1  0
  9  4  1  0
M  END
$$$$
