
     RDKit          3D

 23 26  0  0  0  0  0  0  0  0999 V2000
    9.2480    1.2650   21.1370 O   0  0  0  0  0  0  0  0  0  0  0  0
    8.8160    0.2300   21.6060 C   0  0  0  0  0  0  0  0  0  0  0  0
    9.3690   -0.5330   22.8010 C   0  0  2  0  0  0  0  0  0  0  0  0
   10.8720   -0.3400   22.9430 C   0  0  0  0  0  0  0  0  0  0  0  0
   11.3900    0.4860   23.9340 C   0  0  0  0  0  0  0  0  0  0  0  0
   12.7510    0.7360   24.0090 C   0  0  0  0  0  0  0  0  0  0  0  0
   13.6190    0.1570   23.0940 C   0  0  0  0  0  0  0  0  0  0  0  0
   11.7480   -0.9480   22.0470 C   0  0  0  0  0  0  0  0  0  0  0  0
   13.1020   -0.6900   22.1340 C   0  0  0  0  0  0  0  0  0  0  0  0
   14.1840   -1.4490   20.9970 Cl  0  0  0  0  0  0  0  0  0  0  0  0
    7.7370   -0.4670   21.1360 N   0  0  0  0  0  0  0  0  0  0  0  0
    7.5630   -1.7750   21.7970 C   0  0  0  0  0  0  0  0  0  0  0  0
    8.8940   -1.9800   22.5150 C   0  0  0  0  0  0  0  0  0  0  0  0
    6.8510   -0.0140   20.1080 C   0  0  0  0  0  0  0  0  0  0  0  0
    5.6420    0.6910   20.3790 C   0  0  0  0  0  0  0  0  0  0  0  0
    5.1510    0.9560   21.6860 C   0  0  0  0  0  0  0  0  0  0  0  0
    3.9830    1.6370   21.8730 C   0  0  0  0  0  0  0  0  0  0  0  0
    3.2460    2.0910   20.7870 C   0  0  0  0  0  0  0  0  0  0  0  0
    3.6710    1.8580   19.5110 C   0  0  0  0  0  0  0  0  0  0  0  0
    4.8750    1.1530   19.2700 C   0  0  0  0  0  0  0  0  0  0  0  0
    5.3600    0.8720   17.9690 C   0  0  0  0  0  0  0  0  0  0  0  0
    6.4760    0.2090   17.7230 N   0  0  0  0  0  0  0  0  0  0  0  0
    7.1850   -0.2130   18.7760 C   0  0  0  0  0  0  0  0  0  0  0  0
  2  1  2  0
  3  2  1  0
  3  4  1  6
  5  4  2  0
  6  5  1  0
  7  6  2  0
  8  4  1  0
  9  8  2  0
  9  7  1  0
 10  9  1  0
 11  2  1  0
 12 11  1  0
 13 12  1  0
 13  3  1  0
 14 11  1  0
 15 14  1  0
 16 15  2  0
 17 16  1  0
 18 17  2  0
 19 18  1  0
 20 19  2  0
 20 15  1  0
 21 20  1  0
 22 21  2  0
 23 22  1  0
 23 14  2  0
M  END
