
     RDKit          3D

 22 23  0  0  0  0  0  0  0  0999 V2000
   14.4440   -0.2990   22.8190 F   0  0  0  0  0  0  0  0  0  0  0  0
   13.5490   -1.2750   22.8350 C   0  0  2  0  0  0  0  0  0  0  0  0
   14.0550   -2.2990   23.5240 F   0  0  0  0  0  0  0  0  0  0  0  0
   13.4500   -1.6710   21.5630 F   0  0  0  0  0  0  0  0  0  0  0  0
   12.2340   -0.8110   23.4000 C   0  0  0  0  0  0  0  0  0  0  0  0
   12.1680    0.0680   24.4710 C   0  0  0  0  0  0  0  0  0  0  0  0
   10.9190    0.4400   24.9360 C   0  0  0  0  0  0  0  0  0  0  0  0
    9.7840   -0.0660   24.3210 C   0  0  0  0  0  0  0  0  0  0  0  0
   11.1480   -1.3140   22.7930 N   0  0  0  0  0  0  0  0  0  0  0  0
    9.9410   -0.9400   23.2490 C   0  0  0  0  0  0  0  0  0  0  0  0
    8.7600   -1.4790   22.4800 C   0  0  0  0  0  0  0  0  0  0  0  0
    8.3440   -0.5130   21.3900 C   0  0  0  0  0  0  0  0  0  0  0  0
    9.0060    0.4880   21.1250 O   0  0  0  0  0  0  0  0  0  0  0  0
    7.1870   -0.8280   20.7770 N   0  0  0  0  0  0  0  0  0  0  0  0
    6.5790   -0.0880   19.7400 C   0  0  0  0  0  0  0  0  0  0  0  0
    5.4360    0.6790   20.0090 C   0  0  0  0  0  0  0  0  0  0  0  0
    4.8830    0.8310   21.4090 C   0  0  0  0  0  0  0  0  0  0  0  0
    4.5300    2.2560   21.7800 C   0  0  0  0  0  0  0  0  0  0  0  0
    7.0830   -0.1010   18.4420 C   0  0  0  0  0  0  0  0  0  0  0  0
    6.5230    0.5700   17.4320 N   0  0  0  0  0  0  0  0  0  0  0  0
    5.4180    1.2770   17.6980 C   0  0  0  0  0  0  0  0  0  0  0  0
    4.8480    1.3620   18.9500 C   0  0  0  0  0  0  0  0  0  0  0  0
  2  1  1  6
  3  2  1  0
  4  2  1  0
  5  2  1  0
  6  5  2  0
  7  6  1  0
  8  7  2  0
  9  5  1  0
 10  8  1  0
 10  9  2  0
 11 10  1  0
 12 11  1  0
 13 12  2  0
 14 12  1  0
 15 14  1  0
 16 15  2  0
 17 16  1  0
 18 17  1  0
 19 15  1  0
 20 19  2  0
 21 20  1  0
 22 21  2  0
 22 16  1  0
M  END
