
     RDKit          3D

  8  8  0  0  0  0  0  0  0  0999 V2000
   -0.6810    4.7640  -17.2300 C   0  0  0  0  0  0  0  0  0  0  0  0
   -0.9330    3.5890  -17.9020 C   0  0  0  0  0  0  0  0  0  0  0  0
   -0.4950    3.2610  -19.3280 C   0  0  0  0  0  0  0  0  0  0  0  0
   -1.6330    2.7760  -17.0810 O   0  0  0  0  0  0  0  0  0  0  0  0
   -1.8250    3.4530  -15.8720 N   0  0  0  0  0  0  0  0  0  0  0  0
   -1.2450    4.6640  -15.9730 C   0  0  0  0  0  0  0  0  0  0  0  0
   -1.2060    5.7420  -14.8600 C   0  0  0  0  0  0  0  0  0  0  0  0
   -0.2830    6.5270  -14.8050 O   0  0  0  0  0  0  0  0  0  0  0  0
  2  1  1  0
  3  2  1  0
  4  2  1  0
  5  4  1  0
  6  1  1  0
  6  5  1  0
  7  6  1  0
  8  7  1  0
M  END
