
     RDKit          3D

 16 17  0  0  0  0  0  0  0  0999 V2000
    7.2190   -3.8100   21.2680 N   0  0  0  0  0  0  0  0  0  0  0  0
    7.8000   -4.7160   27.6160 C   0  0  0  0  0  0  0  0  0  0  0  0
    7.6380   -4.7900   26.2000 O   0  0  0  0  0  0  0  0  0  0  0  0
    6.5310   -5.4040   25.7040 C   0  0  0  0  0  0  0  0  0  0  0  0
    7.1810   -4.5790   23.4660 N   0  0  0  0  0  0  0  0  0  0  0  0
    5.6960   -4.2320   19.6480 O   0  0  0  0  0  0  0  0  0  0  0  0
    5.6140   -6.1330   26.4590 C   0  0  0  0  0  0  0  0  0  0  0  0
    4.5120   -6.7260   25.8370 C   0  0  0  0  0  0  0  0  0  0  0  0
    4.3070   -6.6080   24.4790 C   0  0  0  0  0  0  0  0  0  0  0  0
    5.2310   -5.8800   23.7400 C   0  0  0  0  0  0  0  0  0  0  0  0
    6.6580   -4.5720   22.2730 C   0  0  0  0  0  0  0  0  0  0  0  0
    6.7190   -3.6700   20.0010 C   0  0  0  0  0  0  0  0  0  0  0  0
    7.5240   -2.7780   19.0870 C   0  0  0  0  0  0  0  0  0  0  0  0
    6.3490   -5.2710   24.3300 C   0  0  0  0  0  0  0  0  0  0  0  0
    5.2380   -5.5610   22.0260 S   0  0  0  0  0  0  0  0  0  0  0  0
    9.0220   -3.5620   18.4240 S   0  0  0  0  0  0  0  0  0  0  0  0
  3  2  1  0
  4  3  1  0
  7  4  2  0
  8  7  1  0
  9  8  2  0
 10  9  1  0
 11  1  1  0
 11  5  2  0
 12  6  2  0
 12  1  1  0
 13 12  1  0
 14 10  2  0
 14  5  1  0
 14  4  1  0
 15 10  1  0
 15 11  1  0
 13 16  1  0
M  END
