
     RDKit          3D

 16 17  0  0  0  0  0  0  0  0999 V2000
    7.2860   -3.8500   21.2790 N   0  0  0  0  0  0  0  0  0  0  0  0
    7.8680   -4.7730   27.6250 C   0  0  0  0  0  0  0  0  0  0  0  0
    7.7050   -4.8430   26.2080 O   0  0  0  0  0  0  0  0  0  0  0  0
    6.5970   -5.4540   25.7110 C   0  0  0  0  0  0  0  0  0  0  0  0
    5.6790   -6.1830   26.4640 C   0  0  0  0  0  0  0  0  0  0  0  0
    4.5750   -6.7720   25.8410 C   0  0  0  0  0  0  0  0  0  0  0  0
    4.3700   -6.6500   24.4840 C   0  0  0  0  0  0  0  0  0  0  0  0
    5.2950   -5.9220   23.7460 C   0  0  0  0  0  0  0  0  0  0  0  0
    6.7240   -4.6130   22.2820 C   0  0  0  0  0  0  0  0  0  0  0  0
    6.7860   -3.7060   20.0130 C   0  0  0  0  0  0  0  0  0  0  0  0
    7.5920   -2.8130   19.1000 C   0  0  0  0  0  0  0  0  0  0  0  0
    6.4150   -5.3170   24.3370 C   0  0  0  0  0  0  0  0  0  0  0  0
    7.2480   -4.6240   23.4740 N   0  0  0  0  0  0  0  0  0  0  0  0
    5.7610   -4.2650   19.6580 O   0  0  0  0  0  0  0  0  0  0  0  0
    5.3020   -5.5990   22.0330 S   0  0  0  0  0  0  0  0  0  0  0  0
    9.0880   -3.5990   18.4350 S   0  0  0  0  0  0  0  0  0  0  0  0
  3  2  1  0
  4  3  1  0
  5  4  1  0
  6  5  1  0
  7  6  1  0
  8  7  1  0
  9  1  1  0
 10  1  1  0
 11 10  1  0
 12  8  1  0
 12  4  1  0
 13 12  1  0
 13  9  1  0
 14 10  1  0
 15  8  1  0
 15  9  1  0
 11 16  1  0
M  END
$$$$
