
     RDKit          3D

 16 17  0  0  0  0  0  0  0  0999 V2000
    6.5140    0.0090   19.6120 N   0  0  0  0  0  0  0  0  0  0  0  0
    8.4370   -0.2930   21.1520 C   0  0  1  0  0  0  0  0  0  0  0  0
    8.8070    1.0870   21.0250 O   0  0  0  0  0  0  0  0  0  0  0  0
   13.7780   -1.8110   21.3460 Cl  0  0  0  0  0  0  0  0  0  0  0  0
    8.8310   -0.8000   22.5440 C   0  0  0  0  0  0  0  0  0  0  0  0
    6.3890    0.4490   17.4830 N   0  0  0  0  0  0  0  0  0  0  0  0
   10.2910   -0.5710   22.8550 C   0  0  0  0  0  0  0  0  0  0  0  0
    5.4620    0.8550   19.4940 N   0  0  0  0  0  0  0  0  0  0  0  0
   10.6920    0.4710   23.6790 C   0  0  0  0  0  0  0  0  0  0  0  0
   12.0300    0.8260   23.7730 C   0  0  0  0  0  0  0  0  0  0  0  0
   12.9880    0.1360   23.0460 C   0  0  0  0  0  0  0  0  0  0  0  0
   12.5870   -0.9230   22.2620 C   0  0  0  0  0  0  0  0  0  0  0  0
   11.2610   -1.2980   22.1720 C   0  0  0  0  0  0  0  0  0  0  0  0
    6.9410   -0.4740   20.9230 C   0  0  0  0  0  0  0  0  0  0  0  0
    7.0360   -0.2200   18.4110 C   0  0  0  0  0  0  0  0  0  0  0  0
    5.4360    1.0810   18.2000 C   0  0  0  0  0  0  0  0  0  0  0  0
  2  3  1  1
  5  2  1  0
  7  5  1  0
  8  1  1  0
  9  7  2  0
 10  9  1  0
 11 10  2  0
 12  4  1  0
 12 11  1  0
 13  7  1  0
 13 12  2  0
 14  2  1  0
 14  1  1  0
 15  6  2  0
 15  1  1  0
 16  8  2  0
 16  6  1  0
M  END
