
     RDKit          3D

 22 24  0  0  0  0  0  0  0  0999 V2000
   13.8630    6.9370   22.5470 O   0  0  0  0  0  0  0  0  0  0  0  0
   13.6020    5.7580   22.7620 C   0  0  0  0  0  0  0  0  0  0  0  0
   14.1540    4.6730   23.6720 C   0  0  0  0  0  0  0  0  0  0  0  0
   12.7340    4.9100   22.1810 N   0  0  0  0  0  0  0  0  0  0  0  0
   13.4130    3.7060   22.7360 C   0  0  2  0  0  0  0  0  0  0  0  0
   12.4940    2.9090   23.5280 O   0  0  0  0  0  0  0  0  0  0  0  0
   12.3480    1.6250   23.0510 C   0  0  0  0  0  0  0  0  0  0  0  0
   13.3940    0.7300   23.1960 C   0  0  0  0  0  0  0  0  0  0  0  0
   13.2350   -0.5740   22.7550 C   0  0  0  0  0  0  0  0  0  0  0  0
   12.0430   -0.9830   22.1780 C   0  0  0  0  0  0  0  0  0  0  0  0
   11.1560    1.2400   22.4540 C   0  0  0  0  0  0  0  0  0  0  0  0
   11.0060   -0.0720   22.0100 C   0  0  0  0  0  0  0  0  0  0  0  0
    9.8190   -0.5430   21.4030 N   0  0  0  0  0  0  0  0  0  0  0  0
    8.7010    0.1480   21.0920 C   0  0  0  0  0  0  0  0  0  0  0  0
    8.6540    1.3710   20.9980 O   0  0  0  0  0  0  0  0  0  0  0  0
    7.4810   -0.7180   20.8550 C   0  0  0  0  0  0  0  0  0  0  0  0
    6.5690   -0.1770   19.7790 C   0  0  0  0  0  0  0  0  0  0  0  0
    6.9710   -0.1410   18.4540 C   0  0  0  0  0  0  0  0  0  0  0  0
    6.3790    0.6130   17.5220 N   0  0  0  0  0  0  0  0  0  0  0  0
    5.3560    1.3540   17.9480 C   0  0  0  0  0  0  0  0  0  0  0  0
    4.8830    1.4270   19.1940 N   0  0  0  0  0  0  0  0  0  0  0  0
    5.5090    0.6570   20.0910 C   0  0  0  0  0  0  0  0  0  0  0  0
  2  1  2  0
  3  2  1  0
  4  2  1  0
  5  4  1  0
  5  3  1  0
  5  6  1  1
  7  6  1  0
  8  7  2  0
  9  8  1  0
 10  9  2  0
 11  7  1  0
 12 11  2  0
 12 10  1  0
 13 12  1  0
 14 13  1  0
 15 14  2  0
 16 14  1  0
 17 16  1  0
 18 17  2  0
 19 18  1  0
 20 19  2  0
 21 20  1  0
 22 21  2  0
 22 17  1  0
M  END
