
     RDKit          3D

 34 36  0  0  0  0  0  0  0  0999 V2000
    7.3480   -1.4060   21.6910 N   0  0  0  0  0  0  0  0  0  0  0  0
    6.8900   -4.6740   20.1550 C   0  0  0  0  0  0  0  0  0  0  0  0
    5.4290   -2.3420   20.9650 O   0  0  0  0  0  0  0  0  0  0  0  0
    7.1940   -3.8590   21.4080 C   0  0  0  0  0  0  0  0  0  0  0  0
    7.5410    1.9880   22.6530 N   0  0  0  0  0  0  0  0  0  0  0  0
    8.9480    1.2820   21.0100 O   0  0  0  0  0  0  0  0  0  0  0  0
    6.5740   -2.4800   21.3520 C   0  0  0  0  0  0  0  0  0  0  0  0
    6.4870    0.3890   17.6450 N   0  0  0  0  0  0  0  0  0  0  0  0
    6.9490   -0.0050   21.3790 C   0  0  1  0  0  0  0  0  0  0  0  0
   10.9970   -1.7200   22.3180 N   0  0  0  0  0  0  0  0  0  0  0  0
    7.9420    1.1240   21.6960 C   0  0  0  0  0  0  0  0  0  0  0  0
    8.1730    3.2460   22.8710 C   0  0  0  0  0  0  0  0  0  0  0  0
    9.3960    3.2920   23.5610 C   0  0  0  0  0  0  0  0  0  0  0  0
   10.0510    2.0510   24.1280 C   0  0  0  0  0  0  0  0  0  0  0  0
    9.3630    1.5120   25.3730 C   0  0  0  0  0  0  0  0  0  0  0  0
   10.0070    4.5340   23.7350 C   0  0  0  0  0  0  0  0  0  0  0  0
    9.4270    5.6870   23.2310 C   0  0  0  0  0  0  0  0  0  0  0  0
    8.2310    5.6170   22.5420 C   0  0  0  0  0  0  0  0  0  0  0  0
    7.5670    4.4030   22.3650 C   0  0  0  0  0  0  0  0  0  0  0  0
    6.2090    4.3710   21.7100 C   0  0  0  0  0  0  0  0  0  0  0  0
    6.2680    0.2240   20.0410 C   0  0  0  0  0  0  0  0  0  0  0  0
    6.9230   -0.0240   18.8420 C   0  0  0  0  0  0  0  0  0  0  0  0
    5.3340    1.0670   17.6150 C   0  0  0  0  0  0  0  0  0  0  0  0
    4.5890    1.3470   18.7440 C   0  0  0  0  0  0  0  0  0  0  0  0
    5.0630    0.9090   19.9660 C   0  0  0  0  0  0  0  0  0  0  0  0
    8.5980   -1.5640   22.3870 C   0  0  0  0  0  0  0  0  0  0  0  0
    9.8120   -1.5790   21.7060 C   0  0  0  0  0  0  0  0  0  0  0  0
   11.0100   -1.8770   23.6520 C   0  0  0  0  0  0  0  0  0  0  0  0
    9.8430   -1.8940   24.4090 C   0  0  0  0  0  0  0  0  0  0  0  0
    8.6270   -1.7270   23.7690 C   0  0  0  0  0  0  0  0  0  0  0  0
   12.4080   -1.9940   24.2800 C   0  0  0  0  0  0  0  0  0  0  0  0
   12.4680   -3.0590   25.3770 C   0  0  0  0  0  0  0  0  0  0  0  0
   12.8960   -0.6490   24.8070 C   0  0  0  0  0  0  0  0  0  0  0  0
    8.0910   -3.8290   19.1120 S   0  0  0  0  0  0  0  0  0  0  0  0
  4  2  1  0
  7  3  2  0
  7  4  1  0
  7  1  1  0
  9  1  1  0
  9 11  1  6
 11  6  2  0
 11  5  1  0
 12  5  1  0
 13 12  2  0
 14 13  1  0
 15 14  1  0
 16 13  1  0
 17 16  2  0
 18 17  1  0
 19 12  1  0
 19 18  2  0
 20 19  1  0
 21  9  1  0
 22 21  1  0
 22  8  2  0
 23  8  1  0
 24 23  2  0
 25 24  1  0
 25 21  2  0
 26  1  1  0
 27 26  1  0
 27 10  2  0
 28 10  1  0
 29 28  2  0
 30 29  1  0
 30 26  2  0
 31 28  1  0
 31 32  1  0
 33 31  1  0
  2 34  1  0
M  END
