
     RDKit          3D

 20 22  0  0  0  0  0  0  0  0999 V2000
   23.1480  -25.2650   15.2110 N   0  0  0  0  0  0  0  0  0  0  0  0
   19.9160  -19.9810   16.0050 C   0  0  0  0  0  0  0  0  0  0  0  0
   22.8420  -19.6890   15.2850 O   0  0  0  0  0  0  0  0  0  0  0  0
   24.8950  -27.8980   20.1220 Cl  0  0  0  0  0  0  0  0  0  0  0  0
   20.7690  -20.8320   15.0720 C   0  0  1  0  0  0  0  0  0  0  0  0
   21.8360  -19.6240   13.3050 O   0  0  0  0  0  0  0  0  0  0  0  0
   21.8740  -19.9900   14.4610 C   0  0  0  0  0  0  0  0  0  0  0  0
   21.2980  -22.0860   15.7620 C   0  0  0  0  0  0  0  0  0  0  0  0
   21.8820  -23.1230   15.0140 C   0  0  0  0  0  0  0  0  0  0  0  0
   21.9010  -23.1260   13.5030 C   0  0  0  0  0  0  0  0  0  0  0  0
   22.4390  -24.1940   15.7180 C   0  0  2  0  0  0  0  0  0  0  0  0
   22.4240  -24.2680   17.1220 C   0  0  2  0  0  0  0  0  0  0  0  0
   21.7860  -23.2590   17.8380 C   0  0  0  0  0  0  0  0  0  0  0  0
   21.2390  -22.1900   17.1530 C   0  0  0  0  0  0  0  0  0  0  0  0
   23.1900  -25.4510   17.4770 C   0  0  0  0  0  0  0  0  0  0  0  0
   23.6060  -26.0350   16.2650 C   0  0  0  0  0  0  0  0  0  0  0  0
   24.3880  -27.1790   16.2390 C   0  0  0  0  0  0  0  0  0  0  0  0
   24.7810  -27.7450   17.4390 C   0  0  0  0  0  0  0  0  0  0  0  0
   24.3860  -27.1680   18.6280 C   0  0  0  0  0  0  0  0  0  0  0  0
   23.5940  -26.0350   18.6750 C   0  0  0  0  0  0  0  0  0  0  0  0
  5  2  1  1
  7  5  1  0
  7  6  1  0
  7  3  1  0
  8  5  1  0
  9  8  1  0
 10  9  1  0
 11  9  1  0
 11  1  1  1
 12 11  1  0
 12 13  1  1
 14  8  1  0
 14 13  1  0
 15 12  1  0
 16  1  1  0
 16 15  1  0
 17 16  1  0
 18 17  1  0
 19 18  1  0
 19  4  1  0
 20 19  1  0
 20 15  1  0
M  END
$$$$
