
     RDKit          3D

 18 19  0  0  0  0  0  0  0  0999 V2000
    6.5450    0.6550   17.5540 N   0  0  0  0  0  0  0  0  0  0  0  0
    4.7830    0.9680   21.4820 C   0  0  0  0  0  0  0  0  0  0  0  0
    9.0100    0.8390   21.0670 O   0  0  0  0  0  0  0  0  0  0  0  0
   13.7700   -1.7460   21.2440 Cl  0  0  0  0  0  0  0  0  0  0  0  0
    5.4140    0.8570   20.1190 C   0  0  0  0  0  0  0  0  0  0  0  0
    7.2220   -0.5500   20.9610 N   0  0  0  0  0  0  0  0  0  0  0  0
    4.8760    1.5370   19.0310 C   0  0  0  0  0  0  0  0  0  0  0  0
    5.4630    1.4080   17.7890 C   0  0  0  0  0  0  0  0  0  0  0  0
    7.0710   -0.0060   18.5910 C   0  0  0  0  0  0  0  0  0  0  0  0
    6.5560    0.0690   19.8840 C   0  0  0  0  0  0  0  0  0  0  0  0
    8.3820   -0.1240   21.4960 C   0  0  0  0  0  0  0  0  0  0  0  0
    8.8430   -0.9110   22.7080 C   0  0  0  0  0  0  0  0  0  0  0  0
   10.3150   -0.6970   22.9620 C   0  0  0  0  0  0  0  0  0  0  0  0
   10.7470    0.1600   23.9650 C   0  0  0  0  0  0  0  0  0  0  0  0
   12.0870    0.4870   24.0900 C   0  0  0  0  0  0  0  0  0  0  0  0
   13.0250   -0.0620   23.2250 C   0  0  0  0  0  0  0  0  0  0  0  0
   12.5970   -0.9580   22.2650 C   0  0  0  0  0  0  0  0  0  0  0  0
   11.2580   -1.2730   22.1130 C   0  0  0  0  0  0  0  0  0  0  0  0
  5  2  1  0
  7  5  2  0
  8  7  1  0
  8  1  2  0
  9  1  1  0
 10  5  1  0
 10  9  2  0
 10  6  1  0
 11  6  1  0
 11  3  2  0
 12 11  1  0
 13 12  1  0
 14 13  2  0
 15 14  1  0
 16 15  2  0
 17  4  1  0
 17 16  1  0
 18 13  1  0
 18 17  2  0
M  END
