
     RDKit          3D

 16 17  0  0  0  0  0  0  0  0999 V2000
   13.8490   -1.8640   21.3590 Cl  0  0  0  0  0  0  0  0  0  0  0  0
   12.6600   -0.9760   22.2770 C   0  0  0  0  0  0  0  0  0  0  0  0
   13.0640    0.0810   23.0640 C   0  0  0  0  0  0  0  0  0  0  0  0
   12.1070    0.7700   23.7930 C   0  0  0  0  0  0  0  0  0  0  0  0
   10.7680    0.4180   23.6990 C   0  0  0  0  0  0  0  0  0  0  0  0
   11.3330   -1.3480   22.1870 C   0  0  0  0  0  0  0  0  0  0  0  0
   10.3650   -0.6210   22.8730 C   0  0  0  0  0  0  0  0  0  0  0  0
    8.9050   -0.8460   22.5620 C   0  0  0  0  0  0  0  0  0  0  0  0
    8.5110   -0.3360   21.1700 C   0  0  2  0  0  0  0  0  0  0  0  0
    8.8840    1.0450   21.0470 O   0  0  0  0  0  0  0  0  0  0  0  0
    7.0140   -0.5120   20.9420 C   0  0  0  0  0  0  0  0  0  0  0  0
    6.5880   -0.0260   19.6330 N   0  0  0  0  0  0  0  0  0  0  0  0
    5.5370    0.8230   19.5170 N   0  0  0  0  0  0  0  0  0  0  0  0
    5.5120    1.0520   18.2240 C   0  0  0  0  0  0  0  0  0  0  0  0
    6.4630    0.4200   17.5050 N   0  0  0  0  0  0  0  0  0  0  0  0
    7.1090   -0.2520   18.4310 C   0  0  0  0  0  0  0  0  0  0  0  0
  2  1  1  0
  3  2  2  0
  4  3  1  0
  5  4  2  0
  6  2  1  0
  7  5  1  0
  7  6  2  0
  8  7  1  0
  9  8  1  0
  9 10  1  1
 11  9  1  0
 12 11  1  0
 13 12  1  0
 14 13  2  0
 15 14  1  0
 16 15  2  0
 16 12  1  0
M  END
