
     RDKit          3D

 15 15  0  0  0  0  0  0  0  0999 V2000
    8.0520   -0.7970   20.2530 O   0  0  0  0  0  0  0  0  0  0  0  0
    8.3500   -1.9850   20.2920 C   0  0  0  0  0  0  0  0  0  0  0  0
    8.1500   -2.8950   19.1080 C   0  0  0  0  0  0  0  0  0  0  0  0
    8.8770   -2.5490   21.3900 N   0  0  0  0  0  0  0  0  0  0  0  0
    9.0550   -1.7950   22.6340 C   0  0  1  0  0  0  0  0  0  0  0  0
    8.6570   -2.6760   23.8120 C   0  0  0  0  0  0  0  0  0  0  0  0
   10.4730   -1.2740   22.7840 C   0  0  2  0  0  0  0  0  0  0  0  0
   10.7540   -0.2260   23.6560 C   0  0  0  0  0  0  0  0  0  0  0  0
   12.0290    0.2770   23.6970 C   0  0  0  0  0  0  0  0  0  0  0  0
   12.3090    1.2440   24.6090 F   0  0  0  0  0  0  0  0  0  0  0  0
   13.0470   -0.1840   22.9030 C   0  0  0  0  0  0  0  0  0  0  0  0
   12.7580   -1.2340   22.0580 C   0  0  0  0  0  0  0  0  0  0  0  0
   14.0050   -1.8540   21.0150 Cl  0  0  0  0  0  0  0  0  0  0  0  0
   11.4980   -1.7950   22.0010 C   0  0  0  0  0  0  0  0  0  0  0  0
    7.3010   -4.3830   19.5600 S   0  0  0  0  0  0  0  0  0  0  0  0
  2  1  1  0
  3  2  1  0
  4  2  1  0
  5  4  1  0
  5  6  1  1
  7  5  1  0
  7  8  1  6
  9  8  1  0
 10  9  1  0
 11  9  1  0
 12 11  1  0
 13 12  1  0
 14  7  1  0
 14 12  1  0
  3 15  1  0
M  END
$$$$
