
     RDKit          3D

 19 20  0  0  0  0  0  0  0  0999 V2000
    7.4920   -0.5590   20.9080 N   0  0  0  0  0  0  0  0  0  0  0  0
   12.4070    0.7870   23.7900 N   0  0  0  0  0  0  0  0  0  0  0  0
    9.1340   -0.8210   22.6840 C   0  0  1  0  0  0  0  0  0  0  0  0
   13.2920    0.1150   23.0420 C   0  0  0  0  0  0  0  0  0  0  0  0
    5.1220    1.0180   21.5240 C   0  0  0  0  0  0  0  0  0  0  0  0
    8.5880   -0.0320   21.4910 C   0  0  0  0  0  0  0  0  0  0  0  0
    4.9430    1.3450   19.0350 C   0  0  0  0  0  0  0  0  0  0  0  0
    5.4690    1.2080   17.7660 C   0  0  0  0  0  0  0  0  0  0  0  0
    7.2450   -0.0120   18.5310 C   0  0  0  0  0  0  0  0  0  0  0  0
   11.1120    0.4600   23.6740 C   0  0  0  0  0  0  0  0  0  0  0  0
   11.5570   -1.2330   22.0800 C   0  0  0  0  0  0  0  0  0  0  0  0
   10.6230   -0.5290   22.8300 C   0  0  0  0  0  0  0  0  0  0  0  0
   12.8930   -0.9100   22.1880 C   0  0  0  0  0  0  0  0  0  0  0  0
    8.3310   -0.5660   23.9600 C   0  0  0  0  0  0  0  0  0  0  0  0
    6.6090    0.5580   17.5030 N   0  0  0  0  0  0  0  0  0  0  0  0
    9.1230    0.9950   21.0970 O   0  0  0  0  0  0  0  0  0  0  0  0
    5.6050    0.7750   20.1170 C   0  0  1  0  0  0  0  0  0  0  0  0
    6.7880    0.0550   19.8470 C   0  0  0  0  0  0  0  0  0  0  0  0
   14.0630   -1.8090   21.2600 Cl  0  0  0  0  0  0  0  0  0  0  0  0
  4  2  1  0
  6  1  1  0
  6  3  1  0
  8  7  1  0
 10  2  1  0
 12  3  1  0
 12 11  1  0
 12 10  1  0
 13 11  1  0
 13  4  1  0
  3 14  1  1
 15  9  1  0
 15  8  1  0
 16  6  1  0
 17  7  1  0
 17  5  1  1
 18 17  1  0
 18  9  1  0
 18  1  1  0
 19 13  1  0
M  END
$$$$
