
     RDKit          3D

 19 20  0  0  0  0  0  0  0  0999 V2000
    6.6370    0.4630   17.6910 N   0  0  0  0  0  0  0  0  0  0  0  0
    5.4790    0.7910   21.8360 C   0  0  0  0  0  0  0  0  0  0  0  0
    9.3820    1.1040   21.0310 O   0  0  0  0  0  0  0  0  0  0  0  0
    5.8690    0.6150   20.3890 C   0  0  1  0  0  0  0  0  0  0  0  0
    7.9070   -0.6120   21.0030 N   0  0  0  0  0  0  0  0  0  0  0  0
    5.0830    1.1560   19.3750 C   0  0  0  0  0  0  0  0  0  0  0  0
    5.4980    1.0580   18.0640 C   0  0  0  0  0  0  0  0  0  0  0  0
    7.3910   -0.0780   18.6540 C   0  0  0  0  0  0  0  0  0  0  0  0
    7.0620   -0.0420   20.0100 C   0  0  0  0  0  0  0  0  0  0  0  0
    9.0400   -0.0110   21.4140 C   0  0  0  0  0  0  0  0  0  0  0  0
    9.8890   -0.8170   22.3720 C   0  0  0  0  0  0  0  0  0  0  0  0
   11.0340    0.0230   22.9840 C   0  0  0  0  0  0  0  0  0  0  0  0
   11.9830   -0.7720   23.8570 C   0  0  0  0  0  0  0  0  0  0  0  0
   11.8730   -0.6960   25.2460 C   0  0  0  0  0  0  0  0  0  0  0  0
   12.6840   -1.4670   26.0690 C   0  0  0  0  0  0  0  0  0  0  0  0
   13.6210   -2.3190   25.5200 C   0  0  0  0  0  0  0  0  0  0  0  0
   13.7730   -2.3900   24.1450 C   0  0  0  0  0  0  0  0  0  0  0  0
   12.9590   -1.6110   23.3550 C   0  0  0  0  0  0  0  0  0  0  0  0
   13.1350   -1.6420   22.0140 F   0  0  0  0  0  0  0  0  0  0  0  0
  4  2  1  1
  6  4  1  0
  7  6  1  0
  7  1  1  0
  8  1  1  0
  9  8  1  0
  9  5  1  0
  9  4  1  0
 10  5  1  0
 10  3  1  0
 11 10  1  0
 12 11  1  0
 13 12  1  0
 14 13  1  0
 15 14  1  0
 16 15  1  0
 17 16  1  0
 18 17  1  0
 18 13  1  0
 19 18  1  0
M  END
$$$$
