
     RDKit          3D

 22 23  0  0  0  0  0  0  0  0999 V2000
   13.8700   -1.8820   21.4000 Cl  0  0  0  0  0  0  0  0  0  0  0  0
   12.7350   -0.8840   22.2690 C   0  0  0  0  0  0  0  0  0  0  0  0
   13.1790    0.2690   22.8840 C   0  0  0  0  0  0  0  0  0  0  0  0
   12.2500    1.0970   23.4980 C   0  0  0  0  0  0  0  0  0  0  0  0
   10.9050    0.7580   23.4970 C   0  0  0  0  0  0  0  0  0  0  0  0
   11.4020   -1.2410   22.2720 C   0  0  0  0  0  0  0  0  0  0  0  0
   10.4680   -0.4080   22.8790 C   0  0  0  0  0  0  0  0  0  0  0  0
    8.9780   -0.7190   22.7620 C   0  0  1  0  0  0  0  0  0  0  0  0
    8.2460   -0.2820   24.0250 C   0  0  0  0  0  0  0  0  0  0  0  0
    7.5520    0.6940   24.1110 O   0  0  0  0  0  0  0  0  0  0  0  0
    8.5170   -1.1100   25.0370 O   0  0  0  0  0  0  0  0  0  0  0  0
    8.0960   -0.6870   26.3560 C   0  0  0  0  0  0  0  0  0  0  0  0
    8.4060    0.0330   21.5360 C   0  0  0  0  0  0  0  0  0  0  0  0
    8.9200    1.0610   21.1100 O   0  0  0  0  0  0  0  0  0  0  0  0
    7.3120   -0.5290   20.9910 N   0  0  0  0  0  0  0  0  0  0  0  0
    6.6120    0.0680   19.9090 C   0  0  0  0  0  0  0  0  0  0  0  0
    5.4600    0.8330   20.1600 C   0  0  0  0  0  0  0  0  0  0  0  0
    4.9080    1.0110   21.5530 C   0  0  0  0  0  0  0  0  0  0  0  0
    4.8640    1.4670   19.0760 C   0  0  0  0  0  0  0  0  0  0  0  0
    5.4080    1.3220   17.8140 C   0  0  0  0  0  0  0  0  0  0  0  0
    6.5020    0.5910   17.5610 N   0  0  0  0  0  0  0  0  0  0  0  0
    7.0840   -0.0210   18.5980 C   0  0  0  0  0  0  0  0  0  0  0  0
  2  1  1  0
  3  2  2  0
  4  3  1  0
  5  4  2  0
  6  2  1  0
  7  6  2  0
  7  5  1  0
  8  7  1  0
  8  9  1  1
 10  9  2  0
 11  9  1  0
 12 11  1  0
 13  8  1  0
 14 13  2  0
 15 13  1  0
 16 15  1  0
 17 16  2  0
 18 17  1  0
 19 17  1  0
 20 19  2  0
 21 20  1  0
 22 21  2  0
 22 16  1  0
M  END
