
     RDKit          3D

 18 19  0  0  0  0  0  0  0  0999 V2000
    6.7640   -4.2750   20.8110 C   0  0  0  0  0  0  0  0  0  0  0  0
    8.1840   -3.9770   20.3940 C   0  0  0  0  0  0  0  0  0  0  0  0
    7.6080   -4.9330   23.0300 C   0  0  0  0  0  0  0  0  0  0  0  0
    8.6030   -5.9040   22.9430 C   0  0  0  0  0  0  0  0  0  0  0  0
    9.5770   -5.9860   23.9250 C   0  0  0  0  0  0  0  0  0  0  0  0
    9.5570   -5.1330   25.0060 C   0  0  0  0  0  0  0  0  0  0  0  0
    8.5620   -4.1890   25.1120 C   0  0  0  0  0  0  0  0  0  0  0  0
    7.5880   -4.0820   24.1330 C   0  0  0  0  0  0  0  0  0  0  0  0
    5.2490   -5.3910   22.3750 C   0  0  1  0  0  0  0  0  0  0  0  0
    5.1690   -6.8750   22.0680 C   0  0  0  0  0  0  0  0  0  0  0  0
    4.1470   -7.4510   22.6750 C   0  0  0  0  0  0  0  0  0  0  0  0
    4.8890   -5.2730   23.8680 C   0  0  0  0  0  0  0  0  0  0  0  0
    6.5630   -4.8520   22.0420 N   0  0  0  0  0  0  0  0  0  0  0  0
    5.8310   -4.0170   20.0600 O   0  0  0  0  0  0  0  0  0  0  0  0
    4.4370   -7.4810   25.2770 O   0  0  0  0  0  0  0  0  0  0  0  0
    2.4870   -6.3060   24.3500 O   0  0  0  0  0  0  0  0  0  0  0  0
    3.8670   -6.6880   24.2210 S   0  0  2  0  0  0  0  0  0  0  0  0
    8.3130   -3.5640   18.6320 S   0  0  0  0  0  0  0  0  0  0  0  0
  2  1  1  0
  4  3  2  0
  5  4  1  0
  6  5  2  0
  7  6  1  0
  8  7  2  0
  8  3  1  0
 10  9  1  0
 11 10  2  0
 12  9  1  0
  9 13  1  1
 13  1  1  0
 13  3  1  0
 14  1  2  0
 17 16  2  0
 17 15  2  0
 17 11  1  6
 17 12  1  0
  2 18  1  0
M  END
