
     RDKit          3D

 31 32  0  0  0  0  0  0  0  0999 V2000
    9.3830    1.1800   20.9910 O   0  0  0  0  0  0  0  0  0  0  0  0
    8.4810    1.0040   21.8000 C   0  0  0  0  0  0  0  0  0  0  0  0
    8.3970    1.7050   22.9310 N   0  0  0  0  0  0  0  0  0  0  0  0
    9.3990    2.6930   23.3160 C   0  0  0  0  0  0  0  0  0  0  0  0
   10.7650    2.0670   23.5650 C   0  0  0  0  0  0  0  0  0  0  0  0
   11.8630    3.0580   23.8670 C   0  0  0  0  0  0  0  0  0  0  0  0
   12.0040    4.0650   22.8880 O   0  0  0  0  0  0  0  0  0  0  0  0
   13.2970    4.6600   22.9210 C   0  0  0  0  0  0  0  0  0  0  0  0
    7.3640   -0.0120   21.5040 C   0  0  1  0  0  0  0  0  0  0  0  0
    6.6910    0.2640   20.1680 C   0  0  0  0  0  0  0  0  0  0  0  0
    5.5250    1.0160   20.1020 C   0  0  0  0  0  0  0  0  0  0  0  0
    5.0240    1.4130   18.8770 C   0  0  0  0  0  0  0  0  0  0  0  0
    5.7120    1.0380   17.7360 C   0  0  0  0  0  0  0  0  0  0  0  0
    6.8290    0.3040   17.7600 N   0  0  0  0  0  0  0  0  0  0  0  0
    7.2850   -0.0780   18.9590 C   0  0  0  0  0  0  0  0  0  0  0  0
    7.7330   -1.4300   21.7860 N   0  0  0  0  0  0  0  0  0  0  0  0
    6.8680   -2.4380   21.4580 C   0  0  0  0  0  0  0  0  0  0  0  0
    5.7330   -2.2090   21.0760 O   0  0  0  0  0  0  0  0  0  0  0  0
    7.3000   -3.8710   21.6700 C   0  0  0  0  0  0  0  0  0  0  0  0
    8.2960   -4.4490   20.6410 C   0  0  0  0  0  0  0  0  0  0  0  0
    8.9770   -1.6830   22.4660 C   0  0  0  0  0  0  0  0  0  0  0  0
    9.0080   -1.8170   23.8530 C   0  0  0  0  0  0  0  0  0  0  0  0
   10.2180   -1.9840   24.5090 C   0  0  0  0  0  0  0  0  0  0  0  0
   11.4210   -2.0040   23.8070 C   0  0  0  0  0  0  0  0  0  0  0  0
   12.7600   -2.0350   24.5560 C   0  0  1  0  0  0  0  0  0  0  0  0
   12.9680   -0.6910   25.2460 C   0  0  0  0  0  0  0  0  0  0  0  0
   12.7800   -3.1580   25.6060 C   0  0  0  0  0  0  0  0  0  0  0  0
   13.9520   -2.2530   23.6140 C   0  0  0  0  0  0  0  0  0  0  0  0
   11.3750   -1.8890   22.4190 C   0  0  0  0  0  0  0  0  0  0  0  0
   10.1710   -1.7340   21.7530 C   0  0  0  0  0  0  0  0  0  0  0  0
    8.2430   -3.7620   18.9560 S   0  0  0  0  0  0  0  0  0  0  0  0
  2  1  2  0
  3  2  1  0
  4  3  1  0
  5  4  1  0
  6  5  1  0
  7  6  1  0
  8  7  1  0
  9  2  1  6
 10  9  1  0
 11 10  2  0
 12 11  1  0
 13 12  2  0
 14 13  1  0
 15 14  2  0
 15 10  1  0
 16  9  1  0
 17 16  1  0
 18 17  2  0
 19 17  1  0
 20 19  1  0
 21 16  1  0
 22 21  2  0
 23 22  1  0
 24 23  2  0
 25 24  1  0
 25 26  1  1
 27 25  1  0
 28 25  1  0
 29 24  1  0
 30 21  1  0
 30 29  2  0
 20 31  1  0
M  END
