
     RDKit          3D

 18 19  0  0  0  0  0  0  0  0999 V2000
    5.7050   -3.7520   23.7250 N   0  0  0  0  0  0  0  0  0  0  0  0
    1.4730   -2.4470   28.2960 C   0  0  0  0  0  0  0  0  0  0  0  0
    2.8940   -2.3260   28.2990 O   0  0  0  0  0  0  0  0  0  0  0  0
    3.5750   -2.6900   27.1670 C   0  0  0  0  0  0  0  0  0  0  0  0
    6.6260   -2.7870   23.0920 C   0  0  0  0  0  0  0  0  0  0  0  0
    6.4960   -4.2370   19.9520 C   0  0  0  0  0  0  0  0  0  0  0  0
    7.0510   -3.0870   19.1490 C   0  0  0  0  0  0  0  0  0  0  0  0
    3.0670   -3.6390   26.2920 C   0  0  0  0  0  0  0  0  0  0  0  0
    3.7780   -3.9840   25.1580 C   0  0  0  0  0  0  0  0  0  0  0  0
    5.0160   -3.4030   24.8750 C   0  0  0  0  0  0  0  0  0  0  0  0
    5.5080   -2.4440   25.7640 C   0  0  0  0  0  0  0  0  0  0  0  0
    4.8000   -2.0940   26.9000 C   0  0  0  0  0  0  0  0  0  0  0  0
    5.4230   -5.0490   23.0820 C   0  0  0  0  0  0  0  0  0  0  0  0
    6.4600   -5.4890   22.0720 C   0  0  0  0  0  0  0  0  0  0  0  0
    7.5690   -3.3920   22.0770 C   0  0  0  0  0  0  0  0  0  0  0  0
    6.8500   -4.3520   21.2520 N   0  0  0  0  0  0  0  0  0  0  0  0
    5.7430   -5.0370   19.4120 O   0  0  0  0  0  0  0  0  0  0  0  0
    8.6770   -3.4480   18.4190 S   0  0  0  0  0  0  0  0  0  0  0  0
  3  2  1  0
  4  3  1  0
  5  1  1  0
  7  6  1  0
  8  4  1  0
  9  8  1  0
 10  9  1  0
 10  1  1  0
 11 10  1  0
 12  4  1  0
 12 11  1  0
 13  1  1  0
 14 13  1  0
 15  5  1  0
 16 14  1  0
 16  6  1  0
 16 15  1  0
 17  6  1  0
  7 18  1  0
M  END
$$$$
