
     RDKit          3D

 19 20  0  0  0  0  0  0  0  0999 V2000
    6.7080   -5.0460   21.8070 N   0  0  0  0  0  0  0  0  0  0  0  0
    7.9410   -3.5810   20.3100 C   0  0  0  0  0  0  0  0  0  0  0  0
    5.9000   -4.6460   19.7400 O   0  0  0  0  0  0  0  0  0  0  0  0
    0.7120   -1.2980   26.2170 Cl  0  0  0  0  0  0  0  0  0  0  0  0
    6.7620   -4.4720   20.5900 C   0  0  0  0  0  0  0  0  0  0  0  0
    5.9100   -5.4190   24.4600 N   0  0  0  0  0  0  0  0  0  0  0  0
    6.4010   -5.0490   26.8360 O   0  0  0  0  0  0  0  0  0  0  0  0
    5.7800   -6.1230   22.1570 C   0  0  0  0  0  0  0  0  0  0  0  0
    4.7630   -6.7780   26.1520 O   0  0  0  0  0  0  0  0  0  0  0  0
    4.9750   -5.7480   23.3730 C   0  0  0  0  0  0  0  0  0  0  0  0
    6.7410   -4.2620   24.1090 C   0  0  0  0  0  0  0  0  0  0  0  0
    7.5730   -4.6470   22.9200 C   0  0  0  0  0  0  0  0  0  0  0  0
    4.0260   -4.2970   26.0730 C   0  0  0  0  0  0  0  0  0  0  0  0
    4.3110   -2.9850   26.3880 C   0  0  0  0  0  0  0  0  0  0  0  0
    3.2880   -2.0570   26.4360 C   0  0  0  0  0  0  0  0  0  0  0  0
    2.0030   -2.4620   26.1570 C   0  0  0  0  0  0  0  0  0  0  0  0
    1.7120   -3.7670   25.8340 C   0  0  0  0  0  0  0  0  0  0  0  0
    2.7370   -4.6920   25.7850 C   0  0  0  0  0  0  0  0  0  0  0  0
    5.3330   -5.4790   25.9890 S   0  0  2  0  0  0  0  0  0  0  0  0
  5  3  2  0
  5  2  1  0
  5  1  1  0
  8  1  1  0
 10  8  1  0
 10  6  1  0
 11  6  1  0
 12 11  1  0
 12  1  1  0
 14 13  2  0
 15 14  1  0
 16 15  2  0
 16  4  1  0
 17 16  1  0
 18 17  2  0
 18 13  1  0
 19  9  2  0
 19 13  1  6
 19  7  2  0
 19  6  1  0
M  END
