
     RDKit          3D

 28 30  0  0  0  0  0  0  0  0999 V2000
   13.7360   -1.3080   20.8050 F   0  0  0  0  0  0  0  0  0  0  0  0
   12.9930   -0.8740   21.8550 C   0  0  0  0  0  0  0  0  0  0  0  0
   13.4600    0.1860   22.5900 C   0  0  0  0  0  0  0  0  0  0  0  0
   12.7200    0.6060   23.6810 C   0  0  0  0  0  0  0  0  0  0  0  0
   11.8200   -1.5240   22.1360 C   0  0  0  0  0  0  0  0  0  0  0  0
   11.0800   -1.1020   23.2260 C   0  0  0  0  0  0  0  0  0  0  0  0
   11.5390   -0.0480   23.9980 C   0  0  0  0  0  0  0  0  0  0  0  0
   10.5800    0.5050   25.3640 S   0  0  2  0  0  0  0  0  0  0  0  0
   11.3750    1.4210   26.1240 O   0  0  0  0  0  0  0  0  0  0  0  0
   10.0140   -0.6450   26.0060 O   0  0  0  0  0  0  0  0  0  0  0  0
    9.3550    1.3440   24.6950 N   0  0  0  0  0  0  0  0  0  0  0  0
    9.2060    2.7020   24.2960 C   0  0  0  0  0  0  0  0  0  0  0  0
   10.0110    3.7220   24.8090 C   0  0  0  0  0  0  0  0  0  0  0  0
    9.8910    5.0120   24.3140 C   0  0  0  0  0  0  0  0  0  0  0  0
    8.9800    5.2960   23.3150 C   0  0  0  0  0  0  0  0  0  0  0  0
    8.1970    4.2890   22.7710 C   0  0  0  0  0  0  0  0  0  0  0  0
    8.3260    2.9800   23.2400 C   0  0  0  0  0  0  0  0  0  0  0  0
    7.7510    1.8730   22.5680 N   0  0  0  0  0  0  0  0  0  0  0  0
    8.2980    1.2130   21.5150 C   0  0  0  0  0  0  0  0  0  0  0  0
    9.2860    1.6160   20.9070 O   0  0  0  0  0  0  0  0  0  0  0  0
    7.7140   -0.1600   21.1700 C   0  0  1  0  0  0  0  0  0  0  0  0
    6.8190   -0.6400   22.1720 O   0  0  0  0  0  0  0  0  0  0  0  0
    6.9210    0.1610   19.9120 C   0  0  0  0  0  0  0  0  0  0  0  0
    7.4750    0.0410   18.6450 C   0  0  0  0  0  0  0  0  0  0  0  0
    6.8730    0.4430   17.5190 N   0  0  0  0  0  0  0  0  0  0  0  0
    5.6490    0.9760   17.6330 C   0  0  0  0  0  0  0  0  0  0  0  0
    4.9930    1.1170   18.8400 C   0  0  0  0  0  0  0  0  0  0  0  0
    5.6430    0.6990   19.9880 C   0  0  0  0  0  0  0  0  0  0  0  0
  2  1  1  0
  3  2  2  0
  4  3  1  0
  5  2  1  0
  6  5  2  0
  7  6  1  0
  7  4  2  0
  8  7  1  0
  9  8  2  0
 10  8  2  0
  8 11  1  6
 12 11  1  0
 13 12  2  0
 14 13  1  0
 15 14  2  0
 16 15  1  0
 17 16  2  0
 17 12  1  0
 18 17  1  0
 19 18  1  0
 20 19  2  0
 21 19  1  0
 21 22  1  1
 23 21  1  0
 24 23  2  0
 25 24  1  0
 26 25  2  0
 27 26  1  0
 28 27  2  0
 28 23  1  0
M  END
