
     RDKit          3D

 28 30  0  0  0  0  0  0  0  0999 V2000
    7.6730    1.9170   22.5440 N   0  0  0  0  0  0  0  0  0  0  0  0
    7.6400   -0.1190   21.1510 C   0  0  2  0  0  0  0  0  0  0  0  0
    6.7450   -0.5980   22.1540 O   0  0  0  0  0  0  0  0  0  0  0  0
    8.2210    1.2560   21.4920 C   0  0  2  0  0  0  0  0  0  0  0  0
    9.2760    1.3970   24.6720 N   0  0  0  0  0  0  0  0  0  0  0  0
    9.2080    1.6590   20.8840 O   0  0  0  0  0  0  0  0  0  0  0  0
    8.2450    3.0270   23.2130 C   0  0  2  0  0  0  0  0  0  0  0  0
    6.7990    0.4730   17.4980 N   0  0  0  0  0  0  0  0  0  0  0  0
   11.2960    1.4800   26.1020 O   0  0  0  0  0  0  0  0  0  0  0  0
    8.1130    4.3350   22.7410 C   0  0  0  0  0  0  0  0  0  0  0  0
    9.9390   -0.5880   25.9890 O   0  0  0  0  0  0  0  0  0  0  0  0
    8.8940    5.3440   23.2830 C   0  0  0  0  0  0  0  0  0  0  0  0
    9.8050    5.0640   24.2820 C   0  0  0  0  0  0  0  0  0  0  0  0
    9.9280    3.7760   24.7810 C   0  0  0  0  0  0  0  0  0  0  0  0
    9.1250    2.7530   24.2700 C   0  0  2  0  0  0  0  0  0  0  0  0
   11.4640    0.0070   23.9800 C   0  0  2  0  0  0  0  0  0  0  0  0
   12.6430    0.6630   23.6620 C   0  0  0  0  0  0  0  0  0  0  0  0
   13.3840    0.2410   22.5720 C   0  0  0  0  0  0  0  0  0  0  0  0
   12.9200   -0.8210   21.8390 C   0  0  0  0  0  0  0  0  0  0  0  0
   11.7480   -1.4720   22.1210 C   0  0  0  0  0  0  0  0  0  0  0  0
   11.0070   -1.0500   23.2100 C   0  0  0  0  0  0  0  0  0  0  0  0
    6.8470    0.1960   19.8920 C   0  0  1  0  0  0  0  0  0  0  0  0
    5.5670    0.7320   19.9650 C   0  0  0  0  0  0  0  0  0  0  0  0
    4.9170    1.1460   18.8160 C   0  0  0  0  0  0  0  0  0  0  0  0
    5.5740    1.0040   17.6100 C   0  0  0  0  0  0  0  0  0  0  0  0
    7.4020    0.0740   18.6250 C   0  0  0  0  0  0  0  0  0  0  0  0
   13.6650   -1.2570   20.7910 F   0  0  0  0  0  0  0  0  0  0  0  0
   10.5030    0.5620   25.3440 S   0  0  1  0  0  0  0  0  0  0  0  0
  2  3  1  1
  4  2  1  0
  4  1  1  0
  4  6  1  1
  7  1  1  6
 10  7  1  0
 12 10  1  0
 13 12  1  0
 14 13  1  0
 15 14  1  0
 15  7  1  0
 15  5  1  6
 16 17  1  6
 18 17  1  0
 19 18  1  0
 20 19  1  0
 21 20  1  0
 21 16  1  0
 22  2  1  0
 22 23  1  1
 24 23  1  0
 25 24  1  0
 25  8  1  0
 26 22  1  0
 26  8  1  0
 27 19  1  0
 28 11  1  1
 28  5  1  0
 28 16  1  0
 28  9  1  0
M  END
$$$$
