
     RDKit          3D

 17 18  0  0  0  0  0  0  0  0999 V2000
    9.3050    1.0200   21.0400 O   0  0  0  0  0  0  0  0  0  0  0  0
    8.7830    0.0150   21.5070 C   0  0  0  0  0  0  0  0  0  0  0  0
    7.3330   -0.2460   21.3530 C   0  0  0  0  0  0  0  0  0  0  0  0
    6.6840    0.2230   20.1000 C   0  0  0  0  0  0  0  0  0  0  0  0
    7.2550   -0.0060   18.8510 C   0  0  0  0  0  0  0  0  0  0  0  0
    6.7310    0.4380   17.7060 N   0  0  0  0  0  0  0  0  0  0  0  0
    5.5930    1.1390   17.7770 C   0  0  0  0  0  0  0  0  0  0  0  0
    4.9450    1.4150   18.9640 C   0  0  0  0  0  0  0  0  0  0  0  0
    5.5000    0.9470   20.1370 C   0  0  0  0  0  0  0  0  0  0  0  0
    6.6430   -0.8360   22.3210 C   0  0  0  0  0  0  0  0  0  0  0  0
    9.4740   -0.9060   22.1940 N   0  0  0  0  0  0  0  0  0  0  0  0
   10.8170   -0.7820   22.6000 C   0  0  0  0  0  0  0  0  0  0  0  0
   11.7940   -1.6690   22.1770 C   0  0  0  0  0  0  0  0  0  0  0  0
   13.1310   -1.3500   22.3390 C   0  0  0  0  0  0  0  0  0  0  0  0
   13.4970   -0.1650   22.9420 C   0  0  0  0  0  0  0  0  0  0  0  0
   12.5320    0.6910   23.4120 C   0  0  0  0  0  0  0  0  0  0  0  0
   11.1900    0.3880   23.2520 C   0  0  0  0  0  0  0  0  0  0  0  0
  2  1  2  0
  3  2  1  0
  4  3  1  0
  5  4  2  0
  6  5  1  0
  7  6  2  0
  8  7  1  0
  9  8  2  0
  9  4  1  0
 10  3  2  0
 11  2  1  0
 12 11  1  0
 13 12  2  0
 14 13  1  0
 15 14  2  0
 16 15  1  0
 17 12  1  0
 17 16  2  0
M  END
