
     RDKit          3D

 15 17  0  0  0  0  0  0  0  0999 V2000
    2.2780  -24.9020    0.8220 C   0  0  0  0  0  0  0  0  0  0  0  0
    2.0540  -23.5370    0.6930 C   0  0  0  0  0  0  0  0  0  0  0  0
    4.1610  -23.2890   -0.2060 C   0  0  0  0  0  0  0  0  0  0  0  0
    6.4500  -22.8300   -1.1740 C   0  0  0  0  0  0  0  0  0  0  0  0
    7.3100  -21.5270   -1.3850 C   0  0  0  0  0  0  0  0  0  0  0  0
    6.2180  -20.4230   -1.6400 C   0  0  1  0  0  0  0  0  0  0  0  0
    6.7560  -19.0140   -1.3690 C   0  0  0  0  0  0  0  0  0  0  0  0
    7.4500  -18.7250   -2.5080 C   0  0  0  0  0  0  0  0  0  0  0  0
    5.8010  -20.3460   -3.1920 C   0  0  0  0  0  0  0  0  0  0  0  0
    5.1920  -20.7670   -0.8320 C   0  0  0  0  0  0  0  0  0  0  0  0
    4.3890  -24.6670   -0.0810 C   0  0  0  0  0  0  0  0  0  0  0  0
    3.0100  -22.7490    0.1780 N   0  0  0  0  0  0  0  0  0  0  0  0
    5.2310  -22.4170   -0.7800 N   0  0  0  0  0  0  0  0  0  0  0  0
    3.4410  -25.4400    0.4380 N   0  0  0  0  0  0  0  0  0  0  0  0
    6.6940  -19.5370   -3.7320 O   0  0  0  0  0  0  0  0  0  0  0  0
  2  1  1  0
  5  4  1  0
  6  5  1  6
  7  6  1  0
  8  7  1  0
  9  6  1  0
 10  6  1  0
 11  3  1  0
 12  3  1  0
 12  2  1  0
 13  3  1  0
 13 10  1  0
 13  4  1  0
 14 11  1  0
 14  1  1  0
 15  9  1  0
 15  8  1  0
M  END
$$$$
