
     RDKit          3D

 18 19  0  0  0  0  0  0  0  0999 V2000
    1.5900    3.7560   25.2360 C   0  0  0  0  0  0  0  0  0  0  0  0
    0.5940    4.4640   25.8950 C   0  0  0  0  0  0  0  0  0  0  0  0
   -0.7140    4.0000   25.9280 C   0  0  0  0  0  0  0  0  0  0  0  0
   -1.0350    2.8120   25.2910 C   0  0  0  0  0  0  0  0  0  0  0  0
   -0.0460    2.1020   24.6220 C   0  0  0  0  0  0  0  0  0  0  0  0
    1.2690    2.5630   24.5940 C   0  0  0  0  0  0  0  0  0  0  0  0
    2.3240    1.7490   23.8460 C   0  0  0  0  0  0  0  0  0  0  0  0
    4.4690    1.6460   22.4650 C   0  0  0  0  0  0  0  0  0  0  0  0
    3.9730    1.5800   21.0190 C   0  0  0  0  0  0  0  0  0  0  0  0
    4.9720    1.1050   19.9600 C   0  0  0  0  0  0  0  0  0  0  0  0
    5.9820    0.1790   20.2230 C   0  0  0  0  0  0  0  0  0  0  0  0
    6.8260   -0.1870   19.1740 C   0  0  0  0  0  0  0  0  0  0  0  0
    5.7380    1.1880   17.7050 C   0  0  0  0  0  0  0  0  0  0  0  0
    4.8590    1.6100   18.6880 C   0  0  0  0  0  0  0  0  0  0  0  0
    2.8740    4.2400   25.2290 F   0  0  0  0  0  0  0  0  0  0  0  0
    3.4630    2.4020   23.2100 N   0  0  0  0  0  0  0  0  0  0  0  0
    6.6890    0.3190   17.9560 N   0  0  0  0  0  0  0  0  0  0  0  0
    2.1910    0.5700   23.7860 O   0  0  0  0  0  0  0  0  0  0  0  0
  2  1  2  0
  3  2  1  0
  4  3  2  0
  5  4  1  0
  6  5  2  0
  6  1  1  0
  7  6  1  0
  9  8  1  0
 10  9  1  0
 11 10  2  0
 12 11  1  0
 14 10  1  0
 14 13  2  0
 15  1  1  0
 16  8  1  0
 16  7  1  0
 17 13  1  0
 17 12  2  0
 18  7  2  0
M  END
