
     RDKit          3D

 19 21  0  0  0  0  0  0  0  0999 V2000
    9.2350    1.2380   21.0870 O   0  0  0  0  0  0  0  0  0  0  0  0
    9.2220    0.0920   21.4930 C   0  0  0  0  0  0  0  0  0  0  0  0
    9.9610   -0.3040   22.5490 N   0  0  0  0  0  0  0  0  0  0  0  0
   10.0400   -1.6830   23.0490 C   0  0  0  0  0  0  0  0  0  0  0  0
   11.4870   -2.1700   23.0640 C   0  0  0  0  0  0  0  0  0  0  0  0
   10.8040    0.6420   23.2930 C   0  0  0  0  0  0  0  0  0  0  0  0
   12.2620    0.1800   23.3100 C   0  0  0  0  0  0  0  0  0  0  0  0
   12.3970   -1.2370   23.8500 C   0  0  2  0  0  0  0  0  0  0  0  0
   13.8420   -1.7150   23.8480 C   0  0  0  0  0  0  0  0  0  0  0  0
    8.3550   -0.9630   20.8080 C   0  0  0  0  0  0  0  0  0  0  0  0
    7.4860   -0.3530   19.8340 N   0  0  0  0  0  0  0  0  0  0  0  0
    6.3670    0.3990   20.0180 C   0  0  0  0  0  0  0  0  0  0  0  0
    5.9840    0.7760   18.7370 C   0  0  0  0  0  0  0  0  0  0  0  0
    6.8750    0.2320   17.8390 N   0  0  0  0  0  0  0  0  0  0  0  0
    7.7640   -0.4430   18.5050 N   0  0  0  0  0  0  0  0  0  0  0  0
    5.6380    0.7770   21.1460 C   0  0  0  0  0  0  0  0  0  0  0  0
    4.4880    1.5350   20.9410 C   0  0  0  0  0  0  0  0  0  0  0  0
    4.1060    1.9310   19.6600 C   0  0  0  0  0  0  0  0  0  0  0  0
    4.8520    1.5610   18.5460 C   0  0  0  0  0  0  0  0  0  0  0  0
  2  1  2  0
  3  2  1  0
  4  3  1  0
  5  4  1  0
  6  3  1  0
  7  6  1  0
  8  7  1  0
  8  5  1  0
  8  9  1  6
 10  2  1  0
 11 10  1  0
 12 11  1  0
 13 12  2  0
 14 13  1  0
 15 14  2  0
 15 11  1  0
 16 12  1  0
 17 16  2  0
 18 17  1  0
 19 18  2  0
 19 13  1  0
M  END
