
     RDKit          3D

 23 24  0  0  0  0  0  0  0  0999 V2000
    7.5480   -3.9860   22.1000 N   0  0  0  0  0  0  0  0  0  0  0  0
    5.2020   -5.1360   22.8500 C   0  0  0  0  0  0  0  0  0  0  0  0
    7.3940   -6.4150   22.3750 O   0  0  0  0  0  0  0  0  0  0  0  0
    7.7760   -3.4780   23.4610 C   0  0  0  0  0  0  0  0  0  0  0  0
    8.3640   -0.7270   20.6050 N   0  0  0  0  0  0  0  0  0  0  0  0
    6.2550   -5.3100   20.4920 O   0  0  0  0  0  0  0  0  0  0  0  0
    9.0650   -2.6800   23.6420 C   0  0  0  0  0  0  0  0  0  0  0  0
    6.7080    0.5680   17.5910 N   0  0  0  0  0  0  0  0  0  0  0  0
    7.6120   -0.3830   22.7330 O   0  0  0  0  0  0  0  0  0  0  0  0
    9.5110   -1.8500   22.4260 C   0  0  1  0  0  0  0  0  0  0  0  0
    8.4010   -0.9110   21.9500 C   0  0  0  0  0  0  0  0  0  0  0  0
    7.3830   -0.0770   19.8120 C   0  0  0  0  0  0  0  0  0  0  0  0
    6.2180    0.4810   20.3280 C   0  0  0  0  0  0  0  0  0  0  0  0
    5.3040    1.0680   19.4680 C   0  0  0  0  0  0  0  0  0  0  0  0
    5.5900    1.0880   18.1150 C   0  0  0  0  0  0  0  0  0  0  0  0
    7.5780   -0.0040   18.4320 C   0  0  0  0  0  0  0  0  0  0  0  0
   10.7750   -1.0520   22.7160 C   0  0  0  0  0  0  0  0  0  0  0  0
   11.9300   -1.2550   21.9660 C   0  0  0  0  0  0  0  0  0  0  0  0
   13.0710   -0.5020   22.2010 C   0  0  0  0  0  0  0  0  0  0  0  0
   13.0740    0.4620   23.1930 C   0  0  0  0  0  0  0  0  0  0  0  0
   11.9370    0.6650   23.9540 C   0  0  0  0  0  0  0  0  0  0  0  0
   10.7960   -0.0900   23.7200 C   0  0  0  0  0  0  0  0  0  0  0  0
    6.6430   -5.3070   21.8700 S   0  0  2  0  0  0  0  0  0  0  0  0
  4  1  1  0
  7  4  1  0
 10  7  1  1
 11  5  1  0
 11 10  1  0
 11  9  2  0
 12  5  1  0
 13 12  1  0
 14 13  2  0
 15 14  1  0
 15  8  2  0
 16 12  2  0
 16  8  1  0
 17 10  1  0
 18 17  2  0
 19 18  1  0
 20 19  2  0
 21 20  1  0
 22 17  1  0
 22 21  2  0
 23  2  1  1
 23  3  2  0
 23  6  2  0
 23  1  1  0
M  END
