
     RDKit          3D

 16 17  0  0  0  0  0  0  0  0999 V2000
   23.1260  -17.6020   24.2230 C   0  0  0  0  0  0  0  0  0  0  0  0
   22.0290  -19.5460   24.0700 C   0  0  0  0  0  0  0  0  0  0  0  0
   22.1390  -21.0380   23.7210 C   0  0  0  0  0  0  0  0  0  0  0  0
   24.0300  -20.5580   22.4240 C   0  0  0  0  0  0  0  0  0  0  0  0
   23.8460  -19.0710   22.6910 C   0  0  0  0  0  0  0  0  0  0  0  0
   22.2690  -22.1920   21.4700 C   0  0  0  0  0  0  0  0  0  0  0  0
   22.4170  -23.3040   19.1980 C   0  0  0  0  0  0  0  0  0  0  0  0
   22.0560  -24.6060   19.5030 C   0  0  0  0  0  0  0  0  0  0  0  0
   21.5620  -25.4390   18.5080 C   0  0  0  0  0  0  0  0  0  0  0  0
   21.4320  -24.9740   17.2060 C   0  0  0  0  0  0  0  0  0  0  0  0
   21.7980  -23.6670   16.8980 C   0  0  0  0  0  0  0  0  0  0  0  0
   22.2940  -22.8360   17.8940 C   0  0  0  0  0  0  0  0  0  0  0  0
   23.2310  -18.8340   23.9260 N   0  0  0  0  0  0  0  0  0  0  0  0
   22.8040  -21.2900   22.4880 N   0  0  0  0  0  0  0  0  0  0  0  0
   22.9540  -22.4170   20.2140 N   0  0  0  0  0  0  0  0  0  0  0  0
   21.2360  -22.7360   21.6600 O   0  0  0  0  0  0  0  0  0  0  0  0
  3  2  1  0
  5  4  1  0
  8  7  2  0
  9  8  1  0
 10  9  2  0
 11 10  1  0
 12 11  2  0
 12  7  1  0
 13  5  1  0
 13  2  1  0
 13  1  1  0
 14  6  1  0
 14  4  1  0
 14  3  1  0
 15  7  1  0
 15  6  1  0
 16  6  2  0
M  END
