
     RDKit          3D

 23 25  0  0  0  0  0  0  0  0999 V2000
    9.2420   -0.6540   21.9980 N   0  0  0  0  0  0  0  0  0  0  0  0
   12.4430    4.2120   21.7230 N   0  0  0  0  0  0  0  0  0  0  0  0
    6.3430    0.6510   17.4220 N   0  0  0  0  0  0  0  0  0  0  0  0
   12.7850   -1.0280   22.9950 C   0  0  0  0  0  0  0  0  0  0  0  0
   12.1760    1.2950   23.1200 C   0  0  0  0  0  0  0  0  0  0  0  0
   12.6760    2.5330   23.4630 O   0  0  0  0  0  0  0  0  0  0  0  0
    5.2900    1.4080   17.7440 C   0  0  0  0  0  0  0  0  0  0  0  0
   11.4940   -1.3140   22.5710 C   0  0  0  0  0  0  0  0  0  0  0  0
    6.3520   -0.0700   19.7050 C   0  0  2  0  0  0  0  0  0  0  0  0
    7.1210   -0.6740   20.8590 C   0  0  0  0  0  0  0  0  0  0  0  0
    8.3910    0.0660   21.2350 C   0  0  0  0  0  0  0  0  0  0  0  0
   10.8880    1.0100   22.7040 C   0  0  0  0  0  0  0  0  0  0  0  0
   12.8510    4.8570   23.6540 C   0  0  0  0  0  0  0  0  0  0  0  0
    6.8530   -0.0850   18.4160 C   0  0  0  0  0  0  0  0  0  0  0  0
   12.0100    3.7300   23.0350 C   0  0  1  0  0  0  0  0  0  0  0  0
   13.0900    5.2870   22.2150 C   0  0  0  0  0  0  0  0  0  0  0  0
   13.8010   -2.1320   23.1690 C   0  0  0  0  0  0  0  0  0  0  0  0
    4.7250    1.5220   18.9510 N   0  0  0  0  0  0  0  0  0  0  0  0
    8.6060    1.2180   20.8710 O   0  0  0  0  0  0  0  0  0  0  0  0
   13.6450    6.2360   21.6620 O   0  0  0  0  0  0  0  0  0  0  0  0
    5.2780    0.7770   19.9150 C   0  0  0  0  0  0  0  0  0  0  0  0
   10.5440   -0.3080   22.4250 C   0  0  0  0  0  0  0  0  0  0  0  0
   13.1210    0.2920   23.2660 C   0  0  0  0  0  0  0  0  0  0  0  0
  6  5  1  0
  7  3  1  0
  8  4  1  0
  9 10  1  1
 11 10  1  0
 11  1  1  0
 12  5  1  0
 14  9  1  0
 14  3  1  0
 15  2  1  0
 15 13  1  0
 15  6  1  1
 16  2  1  0
 16 13  1  0
 17  4  1  0
 18  7  1  0
 19 11  1  0
 20 16  1  0
 21 18  1  0
 21  9  1  0
 22 12  1  0
 22  1  1  0
 22  8  1  0
 23  5  1  0
 23  4  1  0
M  END
$$$$
