
     RDKit          3D

 24 27  0  0  0  0  0  0  0  0999 V2000
    9.1160    1.0010   21.0660 O   0  0  0  0  0  0  0  0  0  0  0  0
    8.7140    0.0000   21.6240 C   0  0  0  0  0  0  0  0  0  0  0  0
    9.3960   -0.5200   22.8820 C   0  0  2  0  0  0  0  0  0  0  0  0
   10.8940   -0.2550   22.8510 C   0  0  0  0  0  0  0  0  0  0  0  0
   11.4570    0.7060   23.6820 C   0  0  0  0  0  0  0  0  0  0  0  0
   12.8190    0.9550   23.6540 C   0  0  0  0  0  0  0  0  0  0  0  0
   13.6450    0.2330   22.8090 C   0  0  0  0  0  0  0  0  0  0  0  0
   11.7210   -0.9710   21.9930 C   0  0  0  0  0  0  0  0  0  0  0  0
   13.0810   -0.7260   21.9940 C   0  0  0  0  0  0  0  0  0  0  0  0
   14.1110   -1.6880   20.9740 Cl  0  0  0  0  0  0  0  0  0  0  0  0
    7.6180   -0.6770   21.1620 N   0  0  0  0  0  0  0  0  0  0  0  0
    7.0000   -1.8730   21.7790 C   0  0  0  0  0  0  0  0  0  0  0  0
    7.5120   -2.1450   23.1820 C   0  0  0  0  0  0  0  0  0  0  0  0
    9.0240   -1.9600   23.2430 C   0  0  0  0  0  0  0  0  0  0  0  0
    6.8740   -0.1120   20.0800 C   0  0  0  0  0  0  0  0  0  0  0  0
    5.7400    0.7300   20.2820 C   0  0  0  0  0  0  0  0  0  0  0  0
    5.2290    1.0850   21.5590 C   0  0  0  0  0  0  0  0  0  0  0  0
    4.1250    1.8810   21.6770 C   0  0  0  0  0  0  0  0  0  0  0  0
    3.4850    2.3760   20.5490 C   0  0  0  0  0  0  0  0  0  0  0  0
    3.9560    2.0900   19.3000 C   0  0  0  0  0  0  0  0  0  0  0  0
    5.0970    1.2680   19.1310 C   0  0  0  0  0  0  0  0  0  0  0  0
    5.6510    0.9600   17.8620 C   0  0  0  0  0  0  0  0  0  0  0  0
    6.7210    0.1920   17.6820 N   0  0  0  0  0  0  0  0  0  0  0  0
    7.2940   -0.3310   18.7740 C   0  0  0  0  0  0  0  0  0  0  0  0
  2  1  2  0
  3  2  1  0
  3  4  1  6
  5  4  2  0
  6  5  1  0
  7  6  2  0
  8  4  1  0
  9  8  2  0
  9  7  1  0
 10  9  1  0
 11  2  1  0
 12 11  1  0
 13 12  1  0
 14 13  1  0
 14  3  1  0
 15 11  1  0
 16 15  1  0
 17 16  2  0
 18 17  1  0
 19 18  2  0
 20 19  1  0
 21 20  2  0
 21 16  1  0
 22 21  1  0
 23 22  2  0
 24 23  1  0
 24 15  2  0
M  END
