
     RDKit          3D

 16 17  0  0  0  0  0  0  0  0999 V2000
    6.7000   -3.4150   19.9430 C   0  0  0  0  0  0  0  0  0  0  0  0
    7.3450   -2.6510   18.8180 C   0  0  0  0  0  0  0  0  0  0  0  0
    6.4720   -3.7780   22.3730 C   0  0  0  0  0  0  0  0  0  0  0  0
    7.5820   -4.3880   23.1960 C   0  0  0  0  0  0  0  0  0  0  0  0
    8.4970   -2.2090   22.9710 C   0  0  1  0  0  0  0  0  0  0  0  0
    9.7800   -1.4500   23.2140 C   0  0  0  0  0  0  0  0  0  0  0  0
    9.9130   -0.6920   24.3630 C   0  0  0  0  0  0  0  0  0  0  0  0
   11.0670    0.0200   24.6180 C   0  0  0  0  0  0  0  0  0  0  0  0
   12.0750   -0.0440   23.7080 C   0  0  0  0  0  0  0  0  0  0  0  0
   11.9980   -0.7770   22.5580 C   0  0  0  0  0  0  0  0  0  0  0  0
   10.8380   -1.4890   22.3180 C   0  0  0  0  0  0  0  0  0  0  0  0
    7.9040   -1.9680   21.5890 C   0  0  0  0  0  0  0  0  0  0  0  0
   13.2090    0.6570   23.9660 F   0  0  0  0  0  0  0  0  0  0  0  0
    7.0270   -3.0720   21.2080 N   0  0  0  0  0  0  0  0  0  0  0  0
    5.9150   -4.3200   19.6910 O   0  0  0  0  0  0  0  0  0  0  0  0
    8.7730   -3.5880   23.1670 O   0  0  0  0  0  0  0  0  0  0  0  0
  2  1  1  0
  4  3  1  0
  5  6  1  6
  7  6  1  0
  8  7  1  0
  9  8  1  0
 10  9  1  0
 11  6  1  0
 11 10  1  0
 12  5  1  0
 13  9  1  0
 14 12  1  0
 14  1  1  0
 14  3  1  0
 15  1  1  0
 16  5  1  0
 16  4  1  0
M  END
$$$$
