
     RDKit          3D

 18 19  0  0  0  0  0  0  0  0999 V2000
   14.5580   -2.1150   20.5300 N   0  0  0  0  0  0  0  0  0  0  0  0
   13.8340   -1.5550   21.2100 C   0  0  0  0  0  0  0  0  0  0  0  0
   12.8780   -0.8720   22.0400 C   0  0  0  0  0  0  0  0  0  0  0  0
   13.2570    0.1460   22.9130 C   0  0  0  0  0  0  0  0  0  0  0  0
   12.3840    0.8460   23.6490 N   0  0  0  0  0  0  0  0  0  0  0  0
   11.0800    0.5560   23.5060 C   0  0  0  0  0  0  0  0  0  0  0  0
   11.5240   -1.1660   21.9210 C   0  0  0  0  0  0  0  0  0  0  0  0
   10.5960   -0.4240   22.6350 C   0  0  0  0  0  0  0  0  0  0  0  0
    9.2410   -0.6320   22.3060 N   0  0  0  0  0  0  0  0  0  0  0  0
    8.5330    0.0330   21.3740 C   0  0  0  0  0  0  0  0  0  0  0  0
    8.9350    1.0520   20.8190 O   0  0  0  0  0  0  0  0  0  0  0  0
    7.1850   -0.5780   21.0460 C   0  0  0  0  0  0  0  0  0  0  0  0
    6.5330    0.1090   19.8680 C   0  0  0  0  0  0  0  0  0  0  0  0
    7.0060   -0.0800   18.5800 C   0  0  0  0  0  0  0  0  0  0  0  0
    6.4810    0.5050   17.4970 N   0  0  0  0  0  0  0  0  0  0  0  0
    5.4350    1.3220   17.6830 C   0  0  0  0  0  0  0  0  0  0  0  0
    4.8890    1.5820   18.9260 C   0  0  0  0  0  0  0  0  0  0  0  0
    5.4480    0.9590   20.0270 C   0  0  0  0  0  0  0  0  0  0  0  0
  2  1  3  0
  3  2  1  0
  4  3  2  0
  5  4  1  0
  6  5  2  0
  7  3  1  0
  8  7  2  0
  8  6  1  0
  9  8  1  0
 10  9  1  0
 11 10  2  0
 12 10  1  0
 13 12  1  0
 14 13  2  0
 15 14  1  0
 16 15  2  0
 17 16  1  0
 18 17  2  0
 18 13  1  0
M  END
