
     RDKit          3D

 21 23  0  0  0  0  0  0  0  0999 V2000
   22.0140    4.7310   26.0610 O   0  0  0  0  0  0  0  0  0  0  0  0
   22.8470    4.6000   25.1650 C   0  0  0  0  0  0  0  0  0  0  0  0
   22.7780    5.2540   24.0180 N   0  0  0  0  0  0  0  0  0  0  0  0
   24.0110    3.6450   25.3180 C   0  0  1  0  0  0  0  0  0  0  0  0
   24.4020    3.3830   26.7970 C   0  0  2  0  0  0  0  0  0  0  0  0
   25.2780    4.4380   27.4330 C   0  0  0  0  0  0  0  0  0  0  0  0
   26.0150    5.3170   26.6500 C   0  0  0  0  0  0  0  0  0  0  0  0
   26.7440    6.3380   27.2310 C   0  0  0  0  0  0  0  0  0  0  0  0
   26.7560    6.4870   28.5990 C   0  0  0  0  0  0  0  0  0  0  0  0
   26.0440    5.6110   29.3890 C   0  0  0  0  0  0  0  0  0  0  0  0
   25.3140    4.5880   28.8100 C   0  0  0  0  0  0  0  0  0  0  0  0
   25.0630    2.0130   26.6660 C   0  0  0  0  0  0  0  0  0  0  0  0
   24.0630    1.2920   25.8710 N   0  0  0  0  0  0  0  0  0  0  0  0
   23.6510    2.2430   24.8310 C   0  0  0  0  0  0  0  0  0  0  0  0
   24.5070    0.0030   25.3340 C   0  0  0  0  0  0  0  0  0  0  0  0
   23.3070   -0.8130   24.9270 C   0  0  0  0  0  0  0  0  0  0  0  0
   22.3620   -1.2000   25.8620 C   0  0  0  0  0  0  0  0  0  0  0  0
   21.1960   -1.7770   25.5630 N   0  0  0  0  0  0  0  0  0  0  0  0
   20.9390   -1.9890   24.2710 C   0  0  0  0  0  0  0  0  0  0  0  0
   21.8200   -1.6620   23.2630 C   0  0  0  0  0  0  0  0  0  0  0  0
   23.0200   -1.0720   23.6010 C   0  0  0  0  0  0  0  0  0  0  0  0
  2  1  2  0
  3  2  1  0
  4  2  1  1
  5  4  1  0
  5  6  1  6
  7  6  2  0
  8  7  1  0
  9  8  2  0
 10  9  1  0
 11  6  1  0
 11 10  2  0
 12  5  1  0
 13 12  1  0
 14 13  1  0
 14  4  1  0
 15 13  1  0
 16 15  1  0
 17 16  2  0
 18 17  1  0
 19 18  2  0
 20 19  1  0
 21 20  2  0
 21 16  1  0
M  END
