
     RDKit          3D

 26 28  0  0  0  0  0  0  0  0999 V2000
    7.0000    0.7960   24.9130 O   0  0  0  0  0  0  0  0  0  0  0  0
    5.6770    0.8240   25.4590 S   0  0  1  0  0  0  0  0  0  0  0  0
    5.4790    1.2350   26.8150 O   0  0  0  0  0  0  0  0  0  0  0  0
    4.8070    1.8180   24.5340 N   0  0  0  0  0  0  0  0  0  0  0  0
    3.3800    1.9790   24.8230 C   0  0  0  0  0  0  0  0  0  0  0  0
    2.7510    3.0810   24.0050 C   0  0  0  0  0  0  0  0  0  0  0  0
    1.2760    3.2230   24.2920 C   0  0  0  0  0  0  0  0  0  0  0  0
    0.3410    2.4640   23.5980 C   0  0  0  0  0  0  0  0  0  0  0  0
   -1.0130    2.5640   23.8910 C   0  0  0  0  0  0  0  0  0  0  0  0
   -1.4480    3.4300   24.8740 C   0  0  0  0  0  0  0  0  0  0  0  0
   -0.5310    4.2000   25.5630 C   0  0  0  0  0  0  0  0  0  0  0  0
    0.8230    4.0960   25.2740 C   0  0  0  0  0  0  0  0  0  0  0  0
    4.9920   -0.8030   25.2750 C   0  0  0  0  0  0  0  0  0  0  0  0
    4.2920   -1.3190   26.3590 C   0  0  0  0  0  0  0  0  0  0  0  0
    3.6820   -2.5640   26.2660 C   0  0  0  0  0  0  0  0  0  0  0  0
    3.7740   -3.3120   25.1000 C   0  0  0  0  0  0  0  0  0  0  0  0
    4.4940   -2.7970   24.0270 C   0  0  0  0  0  0  0  0  0  0  0  0
    5.1090   -1.5400   24.0840 C   0  0  0  0  0  0  0  0  0  0  0  0
    5.7880   -1.1490   22.9380 N   0  0  0  0  0  0  0  0  0  0  0  0
    4.7950   -3.5240   22.4710 S   0  0  0  0  0  0  0  0  0  0  0  0
    5.6950   -2.0850   22.0350 C   0  0  0  0  0  0  0  0  0  0  0  0
    6.2880   -1.8870   20.8020 N   0  0  0  0  0  0  0  0  0  0  0  0
    6.2650   -2.7720   19.7560 C   0  0  0  0  0  0  0  0  0  0  0  0
    5.6550   -3.8380   19.7640 O   0  0  0  0  0  0  0  0  0  0  0  0
    7.0790   -2.3410   18.5560 C   0  0  0  0  0  0  0  0  0  0  0  0
    8.4390   -3.4530   18.8120 S   0  0  0  0  0  0  0  0  0  0  0  0
  2  1  1  6
  3  2  1  0
  4  2  1  0
  5  4  1  0
  6  5  1  0
  7  6  1  0
  8  7  1  0
  9  8  1  0
 10  9  1  0
 11 10  1  0
 12 11  1  0
 12  7  1  0
 13  2  1  0
 14 13  1  0
 15 14  1  0
 16 15  1  0
 17 16  1  0
 18 17  1  0
 18 13  1  0
 19 18  1  0
 20 17  1  0
 21 20  1  0
 21 19  1  0
 22 21  1  0
 23 22  1  0
 24 23  1  0
 25 23  1  0
 25 26  1  0
M  END
$$$$
