
     RDKit          3D

 25 27  0  0  0  0  0  0  0  0999 V2000
    7.1840   -3.7580   21.2510 N   0  0  0  0  0  0  0  0  0  0  0  0
    7.1760   -2.6040   19.0870 C   0  0  0  0  0  0  0  0  0  0  0  0
    9.4180   -1.9070   27.0010 O   0  0  0  0  0  0  0  0  0  0  0  0
    6.6720   -3.6800   19.9970 C   0  0  0  0  0  0  0  0  0  0  0  0
    7.3910   -3.8060   24.0810 N   0  0  0  0  0  0  0  0  0  0  0  0
    5.8570   -4.5000   19.6060 O   0  0  0  0  0  0  0  0  0  0  0  0
    7.1030   -5.0280   21.9900 C   0  0  0  0  0  0  0  0  0  0  0  0
    9.4380   -3.9360   26.0230 N   0  0  0  0  0  0  0  0  0  0  0  0
    6.5580   -4.7910   23.3850 C   0  0  0  0  0  0  0  0  0  0  0  0
    7.0350   -3.6840   25.5000 C   0  0  0  0  0  0  0  0  0  0  0  0
    8.0840   -4.2940   26.4250 C   0  0  0  0  0  0  0  0  0  0  0  0
   10.0090   -2.7760   26.3630 C   0  0  0  0  0  0  0  0  0  0  0  0
   11.4390   -2.6080   25.9330 C   0  0  0  0  0  0  0  0  0  0  0  0
   12.4300   -3.0890   26.7590 C   0  0  0  0  0  0  0  0  0  0  0  0
   13.7630   -3.0020   26.3980 C   0  0  0  0  0  0  0  0  0  0  0  0
   14.1340   -2.4250   25.2230 C   0  0  0  0  0  0  0  0  0  0  0  0
   13.1660   -1.9120   24.3310 C   0  0  0  0  0  0  0  0  0  0  0  0
   13.5210   -1.3650   23.0760 C   0  0  0  0  0  0  0  0  0  0  0  0
   12.5620   -0.9410   22.2030 C   0  0  0  0  0  0  0  0  0  0  0  0
   11.2220   -1.0220   22.5340 C   0  0  0  0  0  0  0  0  0  0  0  0
   10.8320   -1.5240   23.7430 C   0  0  0  0  0  0  0  0  0  0  0  0
   11.7860   -1.9990   24.6830 C   0  0  0  0  0  0  0  0  0  0  0  0
    7.3150   -2.5190   23.3710 C   0  0  0  0  0  0  0  0  0  0  0  0
    7.8700   -2.6650   21.9580 C   0  0  0  0  0  0  0  0  0  0  0  0
    8.6360   -3.4240   18.4790 S   0  0  0  0  0  0  0  0  0  0  0  0
  4  2  1  0
  4  1  1  0
  6  4  2  0
  7  1  1  0
  9  7  1  0
  9  5  1  0
 10  5  1  0
 11 10  1  0
 11  8  1  0
 12  8  1  0
 12  3  2  0
 13 12  1  0
 14 13  2  0
 15 14  1  0
 16 15  2  0
 17 16  1  0
 18 17  2  0
 19 18  1  0
 20 19  2  0
 21 20  1  0
 22 21  2  0
 22 17  1  0
 22 13  1  0
 23  5  1  0
 24  1  1  0
 24 23  1  0
  2 25  1  0
M  END
