
     RDKit          3D

 26 28  0  0  0  0  0  0  0  0999 V2000
    4.6470   -6.3410   23.5680 N   0  0  0  0  0  0  0  0  0  0  0  0
    3.5390   -7.1470   24.0660 C   0  0  0  0  0  0  0  0  0  0  0  0
    6.0820   -3.1900   20.7210 O   0  0  0  0  0  0  0  0  0  0  0  0
    5.0220   -5.1250   23.9890 C   0  0  0  0  0  0  0  0  0  0  0  0
    6.8680   -2.5020   22.7160 N   0  0  0  0  0  0  0  0  0  0  0  0
    6.1510   -4.8340   23.2820 C   0  0  1  0  0  0  0  0  0  0  0  0
    7.5960   -1.5120   20.7590 N   0  0  0  0  0  0  0  0  0  0  0  0
    7.1280   -3.7160   23.4590 C   0  0  0  0  0  0  0  0  0  0  0  0
    6.0960    1.4310   17.1850 N   0  0  0  0  0  0  0  0  0  0  0  0
    6.7870   -2.4300   21.3710 C   0  0  1  0  0  0  0  0  0  0  0  0
    6.3920   -5.8650   22.4330 N   0  0  0  0  0  0  0  0  0  0  0  0
    8.6600   -0.7560   21.4410 C   0  0  0  0  0  0  0  0  0  0  0  0
    5.4770   -6.7900   22.6080 N   0  0  0  0  0  0  0  0  0  0  0  0
    9.6570   -1.6550   22.1740 C   0  0  0  0  0  0  0  0  0  0  0  0
   10.9210   -0.9500   22.6020 C   0  0  0  0  0  0  0  0  0  0  0  0
   10.8920    0.0510   23.5680 C   0  0  0  0  0  0  0  0  0  0  0  0
   12.0530    0.7150   23.9320 C   0  0  0  0  0  0  0  0  0  0  0  0
   13.2550    0.3930   23.3330 C   0  0  0  0  0  0  0  0  0  0  0  0
   13.3000   -0.6070   22.3820 C   0  0  0  0  0  0  0  0  0  0  0  0
   12.1410   -1.2810   22.0260 C   0  0  0  0  0  0  0  0  0  0  0  0
    7.5310   -1.3540   19.3020 C   0  0  0  0  0  0  0  0  0  0  0  0
    6.6610   -0.2000   18.8590 C   0  0  0  0  0  0  0  0  0  0  0  0
    5.6530    0.2980   19.6710 C   0  0  0  0  0  0  0  0  0  0  0  0
    4.8740    1.3550   19.2390 C   0  0  0  0  0  0  0  0  0  0  0  0
    5.1270    1.8820   17.9920 C   0  0  0  0  0  0  0  0  0  0  0  0
    6.8390    0.4090   17.6300 C   0  0  0  0  0  0  0  0  0  0  0  0
  2  1  1  0
  4  1  1  0
  6  4  1  0
  6  8  1  1
  8  5  1  0
 10  7  1  0
 10  3  1  6
 10  5  1  0
 11  6  1  0
 12  7  1  0
 13  1  1  0
 13 11  1  0
 14 12  1  0
 15 14  1  0
 16 15  1  0
 17 16  1  0
 18 17  1  0
 19 18  1  0
 20 19  1  0
 20 15  1  0
 21  7  1  0
 22 21  1  0
 23 22  1  0
 24 23  1  0
 25 24  1  0
 25  9  1  0
 26 22  1  0
 26  9  1  0
M  END
$$$$
