
     RDKit          3D

 31 32  0  0  0  0  0  0  0  0999 V2000
    8.7010    7.7260   24.6580 C   0  0  1  0  0  0  0  0  0  0  0  0
    7.7410    7.7360   23.4170 C   0  0  0  0  0  0  0  0  0  0  0  0
    7.4410    6.3550   22.8560 C   0  0  0  0  0  0  0  0  0  0  0  0
    8.6720    5.4450   22.6260 C   0  0  2  0  0  0  0  0  0  0  0  0
    8.2500    3.9890   22.2590 C   0  0  0  0  0  0  0  0  0  0  0  0
    9.0960    2.9880   22.8520 O   0  0  0  0  0  0  0  0  0  0  0  0
    9.4200    1.8770   22.1220 C   0  0  0  0  0  0  0  0  0  0  0  0
   10.0390    0.8470   22.7100 N   0  0  0  0  0  0  0  0  0  0  0  0
   10.1820   -0.4470   22.0110 C   0  0  1  0  0  0  0  0  0  0  0  0
   10.9330   -1.4590   22.9270 C   0  0  0  0  0  0  0  0  0  0  0  0
   12.3160   -0.9890   23.3630 C   0  0  1  0  0  0  0  0  0  0  0  0
   13.0290   -2.0210   24.2880 C   0  0  0  0  0  0  0  0  0  0  0  0
   13.1830   -0.6710   22.1430 C   0  0  0  0  0  0  0  0  0  0  0  0
    8.8160   -0.9850   21.6400 C   0  0  2  0  0  0  0  0  0  0  0  0
    8.5230   -1.4950   20.4120 N   0  0  0  0  0  0  0  0  0  0  0  0
    7.2600   -1.9930   20.0550 C   0  0  1  0  0  0  0  0  0  0  0  0
    6.6540   -1.1880   18.7930 C   0  0  0  0  0  0  0  0  0  0  0  0
    6.2950    0.2500   19.1360 C   0  0  1  0  0  0  0  0  0  0  0  0
    5.8270    1.0560   17.9380 C   0  0  0  0  0  0  0  0  0  0  0  0
    4.7260    1.7850   18.2240 N   0  0  0  0  0  0  0  0  0  0  0  0
    4.2780    1.5930   19.6410 C   0  0  0  0  0  0  0  0  0  0  0  0
    5.1240    0.3660   20.1220 C   0  0  0  0  0  0  0  0  0  0  0  0
    6.4580    1.0030   16.8640 O   0  0  0  0  0  0  0  0  0  0  0  0
    7.4020   -3.4980   19.7070 C   0  0  0  0  0  0  0  0  0  0  0  0
    6.1470   -3.9960   19.3220 O   0  0  0  0  0  0  0  0  0  0  0  0
    7.9180   -0.8930   22.4840 O   0  0  0  0  0  0  0  0  0  0  0  0
    9.1270    1.8440   20.9180 O   0  0  0  0  0  0  0  0  0  0  0  0
    9.5960    5.4140   23.8380 C   0  0  0  0  0  0  0  0  0  0  0  0
    9.8860    6.7450   24.5470 C   0  0  0  0  0  0  0  0  0  0  0  0
    9.1690    8.9750   24.8860 F   0  0  0  0  0  0  0  0  0  0  0  0
    8.0170    7.4680   25.8110 F   0  0  0  0  0  0  0  0  0  0  0  0
  2  1  1  0
  3  2  1  0
  4  3  1  0
  4  5  1  1
  6  5  1  0
  7  6  1  0
  8  7  1  0
  9  8  1  0
  9 10  1  1
 11 10  1  0
 11 12  1  6
 13 11  1  0
 14  9  1  0
 15 14  1  0
 16 15  1  0
 16 17  1  6
 18 17  1  6
 19 18  1  0
 20 19  1  0
 21 20  1  0
 22 21  1  0
 22 18  1  0
 23 19  1  0
 24 16  1  0
 25 24  1  0
 14 26  1  6
 27  7  1  0
 28  4  1  0
 29 28  1  0
 29  1  1  0
  1 30  1  1
 31  1  1  0
M  END
$$$$
