
     RDKit          3D

 15 16  0  0  0  0  0  0  0  0999 V2000
   22.0580   20.1830    4.0280 C   0  0  0  0  0  0  0  0  0  0  0  0
   20.8370   19.3380    4.2740 C   0  0  1  0  0  0  0  0  0  0  0  0
   21.2400   17.8440    4.2560 C   0  0  0  0  0  0  0  0  0  0  0  0
   22.4520   16.3420    5.5040 C   0  0  0  0  0  0  0  0  0  0  0  0
   21.9550   15.1010    6.2390 C   0  0  0  0  0  0  0  0  0  0  0  0
   22.5720   13.9020    5.9450 C   0  0  0  0  0  0  0  0  0  0  0  0
   22.1720   12.7400    6.5710 C   0  0  0  0  0  0  0  0  0  0  0  0
   21.1560   12.7660    7.5070 C   0  0  0  0  0  0  0  0  0  0  0  0
   20.5450   13.9450    7.8100 C   0  0  0  0  0  0  0  0  0  0  0  0
   20.9440   15.1210    7.1730 C   0  0  0  0  0  0  0  0  0  0  0  0
   21.8170   18.2360    6.5540 C   0  0  0  0  0  0  0  0  0  0  0  0
   20.6590   19.2410    6.6890 C   0  0  0  0  0  0  0  0  0  0  0  0
   21.5840   17.2990    5.5370 N   0  0  0  0  0  0  0  0  0  0  0  0
   21.9450   21.3680    4.6980 O   0  0  0  0  0  0  0  0  0  0  0  0
   20.1790   19.7630    5.4560 O   0  0  0  0  0  0  0  0  0  0  0  0
  2  1  1  1
  3  2  1  0
  5  4  1  0
  6  5  2  0
  7  6  1  0
  8  7  2  0
  9  8  1  0
 10  9  2  0
 10  5  1  0
 12 11  1  0
 13  3  1  0
 13  4  1  0
 13 11  1  0
 14  1  1  0
 15  2  1  0
 15 12  1  0
M  END
