
     RDKit          3D

 18 19  0  0  0  0  0  0  0  0999 V2000
    6.5090    0.6140   17.3670 N   0  0  0  0  0  0  0  0  0  0  0  0
    4.9830    1.0460   21.3840 C   0  0  0  0  0  0  0  0  0  0  0  0
    9.0630    1.0150   20.8180 O   0  0  0  0  0  0  0  0  0  0  0  0
   13.9110   -1.7960   21.1300 Cl  0  0  0  0  0  0  0  0  0  0  0  0
    5.5020    0.8510   19.9820 C   0  0  0  0  0  0  0  0  0  0  0  0
    7.3710   -0.4880   20.7800 N   0  0  0  0  0  0  0  0  0  0  0  0
    4.8680    1.4550   18.9010 C   0  0  0  0  0  0  0  0  0  0  0  0
   12.3170    0.6690   23.8180 N   0  0  0  0  0  0  0  0  0  0  0  0
    5.3940    1.3090   17.6320 C   0  0  0  0  0  0  0  0  0  0  0  0
    7.1200    0.0150   18.3960 C   0  0  0  0  0  0  0  0  0  0  0  0
    6.6630    0.1010   19.7130 C   0  0  2  0  0  0  0  0  0  0  0  0
    8.4980    0.0370   21.2930 C   0  0  0  0  0  0  0  0  0  0  0  0
    9.0160   -0.6600   22.5360 C   0  0  0  0  0  0  0  0  0  0  0  0
   10.5030   -0.4590   22.7030 C   0  0  0  0  0  0  0  0  0  0  0  0
   11.0120    0.4070   23.6550 C   0  0  0  0  0  0  0  0  0  0  0  0
   13.1830    0.0470   23.0080 C   0  0  0  0  0  0  0  0  0  0  0  0
   12.7580   -0.8690   22.0490 C   0  0  2  0  0  0  0  0  0  0  0  0
   11.4140   -1.1150   21.8840 C   0  0  0  0  0  0  0  0  0  0  0  0
  5  2  1  0
  7  5  1  0
  9  7  1  0
  9  1  1  0
 10  1  1  0
 11 10  1  0
 11  6  1  1
 11  5  1  0
 12  6  1  0
 12  3  1  0
 13 12  1  0
 14 13  1  0
 15 14  1  0
 15  8  1  0
 16  8  1  0
 17  4  1  1
 17 16  1  0
 18 14  1  0
 18 17  1  0
M  END
$$$$
