
     RDKit          3D

 19 20  0  0  0  0  0  0  0  0999 V2000
    8.6680   -1.9080   23.1170 N   0  0  0  0  0  0  0  0  0  0  0  0
   12.5990   -1.9480   22.2250 C   0  0  0  0  0  0  0  0  0  0  0  0
    5.8500   -4.3820   19.6200 O   0  0  0  0  0  0  0  0  0  0  0  0
   12.0410   -0.8570   23.1030 C   0  0  0  0  0  0  0  0  0  0  0  0
    6.5970   -2.8390   21.0700 N   0  0  0  0  0  0  0  0  0  0  0  0
   12.7630    0.3190   23.2390 C   0  0  0  0  0  0  0  0  0  0  0  0
   12.3100    1.3530   24.0330 C   0  0  0  0  0  0  0  0  0  0  0  0
   11.1190    1.2270   24.7080 C   0  0  0  0  0  0  0  0  0  0  0  0
   10.3860    0.0630   24.5910 C   0  0  0  0  0  0  0  0  0  0  0  0
   10.8350   -1.0000   23.8100 C   0  0  0  0  0  0  0  0  0  0  0  0
    9.9770   -2.2380   23.6930 C   0  0  0  0  0  0  0  0  0  0  0  0
    8.7850   -1.4320   21.7300 C   0  0  0  0  0  0  0  0  0  0  0  0
    7.6080   -0.6020   21.2950 C   0  0  0  0  0  0  0  0  0  0  0  0
    6.3420   -1.4180   21.3350 C   0  0  0  0  0  0  0  0  0  0  0  0
    7.0760   -3.6810   22.1740 C   0  0  0  0  0  0  0  0  0  0  0  0
    7.6410   -2.9340   23.3810 C   0  0  0  0  0  0  0  0  0  0  0  0
    6.4670   -3.3410   19.8290 C   0  0  0  0  0  0  0  0  0  0  0  0
    7.1590   -2.6660   18.6550 C   0  0  0  0  0  0  0  0  0  0  0  0
    8.8310   -3.3360   18.3970 S   0  0  0  0  0  0  0  0  0  0  0  0
  4  2  1  0
  6  4  2  0
  7  6  1  0
  8  7  2  0
  9  8  1  0
 10  9  2  0
 10  4  1  0
 11 10  1  0
 11  1  1  0
 12  1  1  0
 13 12  1  0
 14 13  1  0
 14  5  1  0
 15  5  1  0
 16 15  1  0
 16  1  1  0
 17  5  1  0
 17  3  2  0
 18 17  1  0
 18 19  1  0
M  END
