
     RDKit          3D

 19 20  0  0  0  0  0  0  0  0999 V2000
    6.5690   -5.2270   21.7110 N   0  0  0  0  0  0  0  0  0  0  0  0
    7.7760   -3.6340   20.2840 C   0  0  0  0  0  0  0  0  0  0  0  0
    5.7550   -4.7490   19.6770 O   0  0  0  0  0  0  0  0  0  0  0  0
    6.6280   -4.5950   20.5230 C   0  0  0  0  0  0  0  0  0  0  0  0
    5.5140   -6.1730   22.0650 C   0  0  0  0  0  0  0  0  0  0  0  0
    4.7440   -5.6510   23.2460 C   0  0  0  0  0  0  0  0  0  0  0  0
    6.7540   -4.4680   24.0110 C   0  0  0  0  0  0  0  0  0  0  0  0
    7.5000   -5.0070   22.8200 C   0  0  0  0  0  0  0  0  0  0  0  0
    4.1490   -3.8910   25.9950 C   0  0  0  0  0  0  0  0  0  0  0  0
    4.6520   -2.6390   26.2590 C   0  0  0  0  0  0  0  0  0  0  0  0
    3.6810   -1.6360   26.0120 C   0  0  0  0  0  0  0  0  0  0  0  0
    2.4240   -2.1940   25.8080 C   0  0  0  0  0  0  0  0  0  0  0  0
    5.6830   -5.4180   24.3570 N   0  0  0  0  0  0  0  0  0  0  0  0
    4.1570   -6.4430   25.9970 O   0  0  0  0  0  0  0  0  0  0  0  0
    6.1940   -5.2450   26.7490 O   0  0  0  0  0  0  0  0  0  0  0  0
    5.0740   -5.3530   25.8680 S   0  0  2  0  0  0  0  0  0  0  0  0
    2.4530   -3.9090   25.7550 S   0  0  0  0  0  0  0  0  0  0  0  0
    0.9410   -1.3570   25.6200 Cl  0  0  0  0  0  0  0  0  0  0  0  0
    8.3320   -3.4830   18.5710 S   0  0  0  0  0  0  0  0  0  0  0  0
  4  3  1  0
  4  2  1  0
  4  1  1  0
  5  1  1  0
  6  5  1  0
  8  1  1  0
  8  7  1  0
 10  9  1  0
 11 10  1  0
 12 11  1  0
 13  6  1  0
 13  7  1  0
 16 14  1  1
 16  9  1  0
 16 15  1  0
 16 13  1  0
 17 12  1  0
 17  9  1  0
 18 12  1  0
  2 19  1  0
M  END
$$$$
