
     RDKit          3D

  8  7  0  0  0  0  0  0  0  0999 V2000
    6.3740   -5.0250   17.0050 N   0  0  0  0  0  0  0  0  0  0  0  0
    7.7860   -5.3580   16.9130 C   0  0  2  0  0  0  0  0  0  0  0  0
    7.9720   -6.7100   16.2460 C   0  0  0  0  0  0  0  0  0  0  0  0
    7.2270   -7.6540   16.4220 O   0  0  0  0  0  0  0  0  0  0  0  0
    8.4730   -5.3320   18.2880 C   0  0  0  0  0  0  0  0  0  0  0  0
    8.3170   -3.7300   19.0030 S   0  0  0  0  0  0  0  0  0  0  0  0
    7.0910   -3.9900   20.2000 O   0  0  0  0  0  0  0  0  0  0  0  0
    5.9720   -4.8690   19.7310 O   0  0  0  0  0  0  0  0  0  0  0  0
  2  1  1  1
  3  2  1  0
  4  3  1  0
  5  2  1  0
  6  5  1  0
  7  6  1  0
  8  7  1  0
M  END
