
     RDKit          3D

 24 26  0  0  0  0  0  0  0  0999 V2000
    7.1800   -0.3910   18.1720 O   0  0  0  0  0  0  0  0  0  0  0  0
    6.5520   -0.3080   19.2230 C   0  0  2  0  0  0  0  0  0  0  0  0
    5.4960    0.7010   19.3930 C   0  0  0  0  0  0  0  0  0  0  0  0
    4.9620    1.5030   17.9850 S   0  0  0  0  0  0  0  0  0  0  0  0
    3.8510    2.4330   18.8780 C   0  0  0  0  0  0  0  0  0  0  0  0
    3.8760    2.1370   20.1930 C   0  0  0  0  0  0  0  0  0  0  0  0
    4.8130    1.1370   20.5130 C   0  0  0  0  0  0  0  0  0  0  0  0
    6.8180   -1.0800   20.3200 N   0  0  0  0  0  0  0  0  0  0  0  0
    7.8420   -2.0400   20.3830 C   0  0  0  0  0  0  0  0  0  0  0  0
    7.5550   -3.3130   19.8010 C   0  0  0  0  0  0  0  0  0  0  0  0
    6.5030   -3.6400   19.2930 O   0  0  0  0  0  0  0  0  0  0  0  0
    9.0620   -1.7660   21.0020 C   0  0  0  0  0  0  0  0  0  0  0  0
    9.4930   -0.5530   21.6240 C   0  0  1  0  0  0  0  0  0  0  0  0
    8.5830    0.9260   21.6390 S   0  0  0  0  0  0  0  0  0  0  0  0
    9.7860    1.7150   22.6200 C   0  0  0  0  0  0  0  0  0  0  0  0
   10.8380    0.8640   22.9080 C   0  0  0  0  0  0  0  0  0  0  0  0
   10.6660   -0.4120   22.3380 C   0  0  0  0  0  0  0  0  0  0  0  0
    9.6350    3.0160   23.0100 N   0  0  0  0  0  0  0  0  0  0  0  0
   10.4690    3.4680   24.1340 C   0  0  0  0  0  0  0  0  0  0  0  0
   10.6280    4.9710   24.0800 C   0  0  0  0  0  0  0  0  0  0  0  0
    9.3580    5.6330   24.0340 O   0  0  0  0  0  0  0  0  0  0  0  0
    8.6070    5.2280   22.8760 C   0  0  0  0  0  0  0  0  0  0  0  0
    8.3570    3.7370   22.8730 C   0  0  0  0  0  0  0  0  0  0  0  0
    8.7760   -3.6990   18.6840 S   0  0  0  0  0  0  0  0  0  0  0  0
  2  1  1  1
  3  2  1  0
  4  3  1  0
  5  4  1  0
  6  5  1  0
  7  6  1  0
  7  3  1  0
  8  2  1  0
  9  8  1  0
 10  9  1  0
 11 10  1  0
 12  9  1  0
 13 12  1  1
 14 13  1  0
 15 14  1  0
 16 15  1  0
 17 13  1  0
 17 16  1  0
 18 15  1  0
 19 18  1  0
 20 19  1  0
 21 20  1  0
 22 21  1  0
 23 22  1  0
 23 18  1  0
 10 24  1  0
M  END
$$$$
