
     RDKit          3D

 22 24  0  0  0  0  0  0  0  0999 V2000
    6.7540    0.5180   17.5920 N   0  0  0  0  0  0  0  0  0  0  0  0
    5.6330    0.6720   20.1650 C   0  0  0  0  0  0  0  0  0  0  0  0
   10.5450   -0.4820   22.9570 C   0  0  0  0  0  0  0  0  0  0  0  0
    6.7170   -2.5300   24.5350 O   0  0  0  0  0  0  0  0  0  0  0  0
    8.2000   -0.5380   24.1750 C   0  0  0  0  0  0  0  0  0  0  0  0
    5.0350    1.2910   19.0740 C   0  0  0  0  0  0  0  0  0  0  0  0
   11.4460   -1.1860   22.1650 C   0  0  0  0  0  0  0  0  0  0  0  0
    8.5690   -0.1250   21.5640 C   0  0  0  0  0  0  0  0  0  0  0  0
    6.8130   -0.0600   19.9230 C   0  0  0  0  0  0  0  0  0  0  0  0
    7.3250   -0.1080   18.6270 C   0  0  0  0  0  0  0  0  0  0  0  0
   12.3720    0.8450   23.8160 C   0  0  0  0  0  0  0  0  0  0  0  0
    8.6800   -2.3230   22.9860 C   0  0  0  0  0  0  0  0  0  0  0  0
    7.6430   -1.9410   24.0260 C   0  0  0  0  0  0  0  0  0  0  0  0
   11.0200    0.5300   23.7870 C   0  0  0  0  0  0  0  0  0  0  0  0
   13.2690    0.1450   23.0220 C   0  0  0  0  0  0  0  0  0  0  0  0
    5.0750    0.8530   21.5550 C   0  0  0  0  0  0  0  0  0  0  0  0
    7.4770   -0.6760   21.0040 N   0  0  0  0  0  0  0  0  0  0  0  0
    9.1360    0.8610   21.1060 O   0  0  0  0  0  0  0  0  0  0  0  0
    9.0530   -0.7880   22.8660 C   0  0  1  0  0  0  0  0  0  0  0  0
    5.6250    1.1970   17.8270 C   0  0  0  0  0  0  0  0  0  0  0  0
   12.7880   -0.8680   22.2130 C   0  0  0  0  0  0  0  0  0  0  0  0
   13.9030   -1.7980   21.2560 Cl  0  0  0  0  0  0  0  0  0  0  0  0
  6  2  1  0
  7  3  2  0
  9  2  2  0
 10  9  1  0
 10  1  2  0
 13 12  1  0
 13  5  1  0
 13  4  2  0
 14  3  1  0
 14 11  2  0
 15 11  1  0
 16  2  1  0
 17  9  1  0
 17  8  1  0
 18  8  2  0
 19  8  1  6
 19 12  1  0
 19  5  1  0
 19  3  1  0
 20  6  2  0
 20  1  1  0
 21 15  2  0
 21  7  1  0
 22 21  1  0
M  END
