
     RDKit          3D

 26 28  0  0  0  0  0  0  0  0999 V2000
   11.0760    5.0810   22.8870 N   0  0  0  0  0  0  0  0  0  0  0  0
    7.0660   -2.2540   20.8870 N   0  0  0  0  0  0  0  0  0  0  0  0
    8.9350   -1.8030   23.0190 N   0  0  0  0  0  0  0  0  0  0  0  0
   10.1080    5.7350   23.5320 C   0  0  0  0  0  0  0  0  0  0  0  0
   12.4800    0.9080   23.1030 C   0  0  0  0  0  0  0  0  0  0  0  0
    7.9360   -1.0730   20.8920 C   0  0  0  0  0  0  0  0  0  0  0  0
    6.0310   -3.9340   19.7930 O   0  0  0  0  0  0  0  0  0  0  0  0
   10.1730   -2.1030   23.7600 C   0  0  0  0  0  0  0  0  0  0  0  0
   12.3640    4.7900   23.4990 C   0  0  0  0  0  0  0  0  0  0  0  0
   11.4250    0.1180   23.6020 C   0  0  1  0  0  0  0  0  0  0  0  0
   13.4840   -1.0750   22.1860 C   0  0  0  0  0  0  0  0  0  0  0  0
   10.9890    2.2420   24.1250 C   0  0  0  0  0  0  0  0  0  0  0  0
   12.1670    2.2760   23.4340 C   0  0  2  0  0  0  0  0  0  0  0  0
    6.7240   -2.6720   22.2550 C   0  0  0  0  0  0  0  0  0  0  0  0
    6.7300   -2.9310   19.7660 C   0  0  0  0  0  0  0  0  0  0  0  0
   13.5160    0.2940   22.3990 C   0  0  0  0  0  0  0  0  0  0  0  0
    8.0040   -2.9590   23.0550 C   0  0  0  0  0  0  0  0  0  0  0  0
    9.2200   -1.4150   21.6150 C   0  0  0  0  0  0  0  0  0  0  0  0
    7.2750   -2.4100   18.4480 C   0  0  0  0  0  0  0  0  0  0  0  0
    8.8160    5.9160   22.7840 C   0  0  0  0  0  0  0  0  0  0  0  0
   10.5320    0.9530   24.2300 N   0  0  0  0  0  0  0  0  0  0  0  0
   10.2650    6.1520   24.6780 O   0  0  0  0  0  0  0  0  0  0  0  0
   11.3680   -1.2640   23.3660 C   0  0  2  0  0  0  0  0  0  0  0  0
   12.9510    3.4830   23.0080 C   0  0  0  0  0  0  0  0  0  0  0  0
   12.4260   -1.8390   22.6580 C   0  0  0  0  0  0  0  0  0  0  0  0
    8.7390   -3.3570   18.3830 S   0  0  0  0  0  0  0  0  0  0  0  0
  4  1  1  0
  6  2  1  0
  8  3  1  0
  9  1  1  0
 10  5  1  0
 13 12  1  0
 13  5  1  0
 14  2  1  0
 15  7  1  0
 15  2  1  0
 16 11  1  0
 16  5  1  0
 17 14  1  0
 17  3  1  0
 18  6  1  0
 18  3  1  0
 19 15  1  0
 20  4  1  0
 21 12  1  0
 10 21  1  6
 22  4  1  0
 23  8  1  6
 23 10  1  0
 13 24  1  6
 24  9  1  0
 25 23  1  0
 25 11  1  0
 19 26  1  0
M  END
