
     RDKit          3D

  6  5  0  0  0  0  0  0  0  0999 V2000
   16.3640  -17.5640   28.1840 C   0  0  0  0  0  0  0  0  0  0  0  0
   16.2250  -16.0860   28.4830 C   0  0  0  0  0  0  0  0  0  0  0  0
   14.8670  -15.7340   29.0670 C   0  0  0  0  0  0  0  0  0  0  0  0
   13.7540  -15.8870   28.0240 C   0  0  0  0  0  0  0  0  0  0  0  0
   12.6560  -14.9620   28.2240 N   0  0  0  0  0  0  0  0  0  0  0  0
   11.9060  -14.6560   27.0370 C   0  0  0  0  0  0  0  0  0  0  0  0
  2  1  1  0
  3  2  1  0
  4  3  1  0
  5  4  1  0
  6  5  1  0
M  END
$$$$
