
     RDKit          3D

 21 24  0  0  0  0  0  0  0  0999 V2000
    9.0030    1.3280   21.1560 O   0  0  0  0  0  0  0  0  0  0  0  0
    8.5420    0.2440   21.5000 C   0  0  0  0  0  0  0  0  0  0  0  0
    8.8980   -0.4090   22.8400 C   0  0  1  0  0  0  0  0  0  0  0  0
   10.4110   -0.4660   22.9230 C   0  0  0  0  0  0  0  0  0  0  0  0
   11.1680   -1.1360   21.9660 C   0  0  0  0  0  0  0  0  0  0  0  0
   12.5510   -1.0680   21.9810 C   0  0  0  0  0  0  0  0  0  0  0  0
   13.1990   -0.3210   22.9370 C   0  0  0  0  0  0  0  0  0  0  0  0
   12.4730    0.3350   23.9230 C   0  0  0  0  0  0  0  0  0  0  0  0
   11.0880    0.2360   23.9250 C   0  0  0  0  0  0  0  0  0  0  0  0
   10.4470    0.8220   24.9910 O   0  0  0  0  0  0  0  0  0  0  0  0
    9.1110    0.3360   25.2460 C   0  0  0  0  0  0  0  0  0  0  0  0
    8.2440    0.3780   24.0080 C   0  0  0  0  0  0  0  0  0  0  0  0
    7.6320   -0.4360   20.7440 N   0  0  0  0  0  0  0  0  0  0  0  0
    7.1480   -0.0120   19.5170 C   0  0  0  0  0  0  0  0  0  0  0  0
    5.8870    0.5080   19.3570 N   0  0  0  0  0  0  0  0  0  0  0  0
    5.8200    0.8600   18.0420 C   0  0  0  0  0  0  0  0  0  0  0  0
    6.9370    0.6060   17.4330 N   0  0  0  0  0  0  0  0  0  0  0  0
    7.7940    0.0380   18.3670 N   0  0  0  0  0  0  0  0  0  0  0  0
    4.8710    0.7540   20.3940 C   0  0  1  0  0  0  0  0  0  0  0  0
    5.0650    1.9070   21.3130 C   0  0  0  0  0  0  0  0  0  0  0  0
    4.0160    1.9620   20.2510 C   0  0  0  0  0  0  0  0  0  0  0  0
  2  1  2  0
  3  2  1  6
  4  3  1  0
  5  4  2  0
  6  5  1  0
  7  6  2  0
  8  7  1  0
  9  4  1  0
  9  8  2  0
 10  9  1  0
 11 10  1  0
 12 11  1  0
 12  3  1  0
 13  2  1  0
 14 13  1  0
 15 14  1  0
 16 15  1  0
 17 16  2  0
 18 17  1  0
 18 14  2  0
 19 15  1  6
 20 19  1  0
 21 20  1  0
 21 19  1  0
M  END
