
     RDKit          3D

 12 13  0  0  0  0  0  0  0  0999 V2000
    4.8390   -4.1000   24.3040 N   0  0  0  0  0  0  0  0  0  0  0  0
    6.1680   -4.9520   19.5610 O   0  0  0  0  0  0  0  0  0  0  0  0
    6.9810   -4.2180   20.0590 C   0  0  0  0  0  0  0  0  0  0  0  0
    6.8280   -3.5850   21.3990 C   0  0  1  0  0  0  0  0  0  0  0  0
    7.4980   -2.3890   21.6680 C   0  0  0  0  0  0  0  0  0  0  0  0
    7.2420   -1.6790   22.8340 C   0  0  0  0  0  0  0  0  0  0  0  0
    6.3210   -2.1430   23.7620 C   0  0  0  0  0  0  0  0  0  0  0  0
    5.6840   -3.3550   23.5160 C   0  0  1  0  0  0  0  0  0  0  0  0
    4.5720   -5.2890   23.6760 C   0  0  0  0  0  0  0  0  0  0  0  0
    5.2120   -5.3400   22.4820 C   0  0  0  0  0  0  0  0  0  0  0  0
    5.9250   -4.1010   22.3430 C   0  0  2  0  0  0  0  0  0  0  0  0
    8.2380   -3.8000   18.9200 S   0  0  0  0  0  0  0  0  0  0  0  0
  3  2  1  0
  4  3  1  6
  5  4  1  0
  6  5  1  0
  7  6  1  0
  8  1  1  0
  8  7  1  1
  9  1  1  0
 10  9  1  0
 11 10  1  1
 11  4  1  0
 11  8  1  0
  3 12  1  0
M  END
