
     RDKit          3D

 32 34  0  0  0  0  0  0  0  0999 V2000
    9.2210    1.1710   20.9590 O   0  0  0  0  0  0  0  0  0  0  0  0
    8.2290    1.1290   21.6750 C   0  0  0  0  0  0  0  0  0  0  0  0
    7.9810    2.0390   22.6200 N   0  0  0  0  0  0  0  0  0  0  0  0
    8.8900    3.1520   22.8760 C   0  0  2  0  0  0  0  0  0  0  0  0
    9.6940    2.9190   24.1490 C   0  0  0  0  0  0  0  0  0  0  0  0
   10.6030    4.1060   24.3700 C   0  0  0  0  0  0  0  0  0  0  0  0
    9.8570    5.3350   24.4380 O   0  0  0  0  0  0  0  0  0  0  0  0
    9.1330    5.5810   23.2170 C   0  0  0  0  0  0  0  0  0  0  0  0
    8.1410    4.4770   22.9300 C   0  0  0  0  0  0  0  0  0  0  0  0
    7.1400    0.0680   21.4390 C   0  0  1  0  0  0  0  0  0  0  0  0
    6.4350    0.2780   20.1090 C   0  0  0  0  0  0  0  0  0  0  0  0
    5.2950    1.0660   20.0280 C   0  0  0  0  0  0  0  0  0  0  0  0
    4.7890    1.4310   18.7970 C   0  0  0  0  0  0  0  0  0  0  0  0
    5.4440    0.9870   17.6640 C   0  0  0  0  0  0  0  0  0  0  0  0
    6.5380    0.2190   17.7010 N   0  0  0  0  0  0  0  0  0  0  0  0
    7.0000   -0.1300   18.9070 C   0  0  0  0  0  0  0  0  0  0  0  0
    7.5430   -1.3230   21.7780 N   0  0  0  0  0  0  0  0  0  0  0  0
    6.7300   -2.3860   21.5080 C   0  0  0  0  0  0  0  0  0  0  0  0
    5.5380   -2.2430   21.3030 O   0  0  0  0  0  0  0  0  0  0  0  0
    7.3500   -3.7520   21.4100 C   0  0  0  0  0  0  0  0  0  0  0  0
    7.1090   -4.3540   20.0370 C   0  0  0  0  0  0  0  0  0  0  0  0
    8.7770   -1.4840   22.4940 C   0  0  0  0  0  0  0  0  0  0  0  0
    8.7960   -1.4100   23.8850 C   0  0  0  0  0  0  0  0  0  0  0  0
    9.9910   -1.5350   24.5730 C   0  0  0  0  0  0  0  0  0  0  0  0
   11.1940   -1.7320   23.9010 C   0  0  0  0  0  0  0  0  0  0  0  0
   12.5130   -1.8010   24.6870 C   0  0  1  0  0  0  0  0  0  0  0  0
   12.5740   -3.0620   25.5700 C   0  0  0  0  0  0  0  0  0  0  0  0
   13.7340   -1.8240   23.7690 C   0  0  0  0  0  0  0  0  0  0  0  0
   12.6380   -0.5750   25.5920 C   0  0  0  0  0  0  0  0  0  0  0  0
   11.1630   -1.8220   22.5100 C   0  0  0  0  0  0  0  0  0  0  0  0
    9.9740   -1.7010   21.8090 C   0  0  0  0  0  0  0  0  0  0  0  0
    8.2950   -3.7490   18.8020 S   0  0  0  0  0  0  0  0  0  0  0  0
  2  1  2  0
  3  2  1  0
  4  3  1  1
  5  4  1  0
  6  5  1  0
  7  6  1  0
  8  7  1  0
  9  4  1  0
  9  8  1  0
 10  2  1  6
 11 10  1  0
 12 11  2  0
 13 12  1  0
 14 13  2  0
 15 14  1  0
 16 15  2  0
 16 11  1  0
 17 10  1  0
 18 17  1  0
 19 18  2  0
 20 18  1  0
 21 20  1  0
 22 17  1  0
 23 22  2  0
 24 23  1  0
 25 24  2  0
 26 25  1  0
 26 27  1  1
 28 26  1  0
 29 26  1  0
 30 25  1  0
 31 22  1  0
 31 30  2  0
 21 32  1  0
M  END
