
     RDKit          3D

 27 29  0  0  0  0  0  0  0  0999 V2000
    7.4450   -1.4720   21.5080 N   0  0  0  0  0  0  0  0  0  0  0  0
   10.3580    2.5930   24.0390 C   0  0  0  0  0  0  0  0  0  0  0  0
   10.2290    1.2490   23.5790 O   0  0  0  0  0  0  0  0  0  0  0  0
   11.3550    0.6130   23.1270 C   0  0  2  0  0  0  0  0  0  0  0  0
    4.9140    1.5490   18.3750 N   0  0  0  0  0  0  0  0  0  0  0  0
    9.8280   -1.0140   22.2820 O   0  0  0  0  0  0  0  0  0  0  0  0
   12.6380    1.1440   23.1840 C   0  0  0  0  0  0  0  0  0  0  0  0
    5.5790   -2.6010   20.9780 O   0  0  0  0  0  0  0  0  0  0  0  0
   13.6830    0.4820   22.5580 C   0  0  0  0  0  0  0  0  0  0  0  0
    6.5650    1.0930   16.9070 O   0  0  0  0  0  0  0  0  0  0  0  0
   13.4670   -0.7200   21.9130 C   0  0  0  0  0  0  0  0  0  0  0  0
   12.2020   -1.2870   21.8830 C   0  0  0  0  0  0  0  0  0  0  0  0
   11.1350   -0.6200   22.4700 C   0  0  1  0  0  0  0  0  0  0  0  0
    9.1900   -1.9380   23.2100 C   0  0  2  0  0  0  0  0  0  0  0  0
   10.0530   -3.1370   23.5040 C   0  0  0  0  0  0  0  0  0  0  0  0
    7.8890   -2.4340   22.5100 C   0  0  0  0  0  0  0  0  0  0  0  0
    6.2850   -1.6030   20.8670 C   0  0  0  0  0  0  0  0  0  0  0  0
    5.8510   -0.4410   20.0510 C   0  0  1  0  0  0  0  0  0  0  0  0
    6.4000   -0.2430   18.8230 C   0  0  0  0  0  0  0  0  0  0  0  0
    5.9730    0.7930   17.9420 C   0  0  1  0  0  0  0  0  0  0  0  0
    4.3050    1.4090   19.6200 C   0  0  0  0  0  0  0  0  0  0  0  0
    3.2350    2.2210   19.9850 C   0  0  0  0  0  0  0  0  0  0  0  0
    2.6440    2.0790   21.2290 C   0  0  0  0  0  0  0  0  0  0  0  0
    3.1540    1.1430   22.0890 C   0  0  2  0  0  0  0  0  0  0  0  0
    4.2180    0.3340   21.7850 C   0  0  0  0  0  0  0  0  0  0  0  0
    4.7830    0.4350   20.5150 C   0  0  0  0  0  0  0  0  0  0  0  0
    2.5360    0.9570   23.2860 F   0  0  0  0  0  0  0  0  0  0  0  0
  3  2  1  0
  4  3  1  6
  7  4  1  0
  9  7  1  0
 11  9  1  0
 12 11  1  0
 13  6  1  6
 13 12  1  0
 13  4  1  0
 14  6  1  0
 14 15  1  6
 16  1  1  0
 16 14  1  0
 17  8  1  0
 17  1  1  0
 18 17  1  6
 19 18  1  0
 20  5  1  0
 20 19  1  0
 20 10  1  1
 21  5  1  0
 22 21  1  0
 23 22  1  0
 24 23  1  0
 25 24  1  0
 26 25  1  0
 26 21  1  0
 26 18  1  0
 24 27  1  6
M  END
$$$$
