
     RDKit          3D

  8  8  0  0  0  0  0  0  0  0999 V2000
   -0.4930    6.2460  -18.2950 O   0  0  0  0  0  0  0  0  0  0  0  0
   -0.9360    7.1710  -17.3630 N   0  0  0  0  0  0  0  0  0  0  0  0
   -0.7520    6.6520  -16.1480 C   0  0  0  0  0  0  0  0  0  0  0  0
   -0.1930    5.4050  -16.2990 C   0  0  0  0  0  0  0  0  0  0  0  0
   -0.0390    5.1690  -17.6340 C   0  0  0  0  0  0  0  0  0  0  0  0
    0.5490    3.9120  -18.2690 C   0  0  0  0  0  0  0  0  0  0  0  0
   -1.1040    7.3270  -14.8230 C   0  0  0  0  0  0  0  0  0  0  0  0
   -0.5160    8.3780  -14.4480 O   0  0  0  0  0  0  0  0  0  0  0  0
  2  1  1  0
  3  2  1  0
  4  3  1  0
  5  4  1  0
  5  1  1  0
  6  5  1  0
  7  3  1  0
  8  7  1  0
M  CHG  1   8  -1
M  END
