
     RDKit          3D

 37 40  0  0  0  0  0  0  0  0999 V2000
    5.2050   -2.1520   21.0570 O   0  0  0  0  0  0  0  0  0  0  0  0
    6.3020   -2.3300   21.5670 C   0  0  0  0  0  0  0  0  0  0  0  0
    6.6280   -3.7230   22.0060 C   0  0  0  0  0  0  0  0  0  0  0  0
    5.7970   -4.5870   21.3490 O   0  0  0  0  0  0  0  0  0  0  0  0
    6.2070   -5.8500   21.6940 C   0  0  0  0  0  0  0  0  0  0  0  0
    7.2350   -5.7970   22.5310 C   0  0  0  0  0  0  0  0  0  0  0  0
    7.5180   -4.4250   22.7470 C   0  0  0  0  0  0  0  0  0  0  0  0
    7.1890   -1.3360   21.8170 N   0  0  0  0  0  0  0  0  0  0  0  0
    8.4330   -1.5930   22.4970 C   0  0  0  0  0  0  0  0  0  0  0  0
    8.5330   -1.4050   23.8760 C   0  0  0  0  0  0  0  0  0  0  0  0
    9.7740   -1.4170   24.4890 C   0  0  0  0  0  0  0  0  0  0  0  0
    9.5920   -1.8730   21.7670 C   0  0  0  0  0  0  0  0  0  0  0  0
   10.8250   -1.8650   22.3910 C   0  0  0  0  0  0  0  0  0  0  0  0
   10.9390   -1.6140   23.7540 C   0  0  0  0  0  0  0  0  0  0  0  0
   12.3100   -1.5080   24.4330 C   0  0  1  0  0  0  0  0  0  0  0  0
   12.4300   -0.1590   25.1460 C   0  0  0  0  0  0  0  0  0  0  0  0
   12.4580   -2.6090   25.4790 C   0  0  0  0  0  0  0  0  0  0  0  0
   13.4600   -1.6410   23.4300 C   0  0  0  0  0  0  0  0  0  0  0  0
    7.4780   -0.3270   20.7510 C   0  0  1  0  0  0  0  0  0  0  0  0
    6.3520    0.0430   19.8000 C   0  0  0  0  0  0  0  0  0  0  0  0
    6.4550   -0.2710   18.4520 C   0  0  0  0  0  0  0  0  0  0  0  0
    5.7200    0.2960   17.4870 N   0  0  0  0  0  0  0  0  0  0  0  0
    4.8050    1.1980   17.8660 C   0  0  0  0  0  0  0  0  0  0  0  0
    4.5780    1.5390   19.1860 C   0  0  0  0  0  0  0  0  0  0  0  0
    5.3650    0.9490   20.1590 C   0  0  0  0  0  0  0  0  0  0  0  0
    8.1510    0.9170   21.3580 C   0  0  0  0  0  0  0  0  0  0  0  0
    9.1710    1.3710   20.8670 O   0  0  0  0  0  0  0  0  0  0  0  0
    7.5770    1.4350   22.4410 N   0  0  0  0  0  0  0  0  0  0  0  0
    8.2380    2.4770   23.2180 C   0  0  0  0  0  0  0  0  0  0  0  0
    9.6010    2.0100   23.7510 C   0  0  0  0  0  0  0  0  0  0  0  0
   10.7130    3.0330   23.6810 C   0  0  0  0  0  0  0  0  0  0  0  0
   11.0910    3.7320   24.8230 C   0  0  0  0  0  0  0  0  0  0  0  0
   12.1420    4.6150   24.7440 C   0  0  0  0  0  0  0  0  0  0  0  0
   12.4980    5.2860   25.8750 F   0  0  0  0  0  0  0  0  0  0  0  0
   12.8430    4.8530   23.5900 C   0  0  0  0  0  0  0  0  0  0  0  0
   12.4660    4.1590   22.4530 C   0  0  0  0  0  0  0  0  0  0  0  0
   11.4110    3.2590   22.4990 C   0  0  0  0  0  0  0  0  0  0  0  0
  2  1  2  0
  3  2  1  0
  4  3  1  0
  5  4  1  0
  6  5  2  0
  7  6  1  0
  7  3  2  0
  8  2  1  0
  9  8  1  0
 10  9  2  0
 11 10  1  0
 12  9  1  0
 13 12  2  0
 14 13  1  0
 14 11  2  0
 15 14  1  0
 15 16  1  1
 17 15  1  0
 18 15  1  0
 19  8  1  0
 20 19  1  0
 21 20  2  0
 22 21  1  0
 23 22  2  0
 24 23  1  0
 25 24  2  0
 25 20  1  0
 19 26  1  1
 27 26  2  0
 28 26  1  0
 29 28  1  0
 30 29  1  0
 31 30  1  0
 32 31  2  0
 33 32  1  0
 34 33  1  0
 35 33  2  0
 36 35  1  0
 37 31  1  0
 37 36  2  0
M  END
