
     RDKit          3D

 11 11  0  0  0  0  0  0  0  0999 V2000
   10.1040   -0.6810   22.5530 C   0  0  0  0  0  0  0  0  0  0  0  0
    9.2070   -0.0590   21.4840 C   0  0  0  0  0  0  0  0  0  0  0  0
    9.5320    0.9550   20.9690 O   0  0  0  0  0  0  0  0  0  0  0  0
    7.9590   -0.7020   21.1090 N   0  0  0  0  0  0  0  0  0  0  0  0
    7.1050   -0.1160   20.0880 C   0  0  0  0  0  0  0  0  0  0  0  0
    7.4770   -0.1810   18.7520 C   0  0  0  0  0  0  0  0  0  0  0  0
    6.7240    0.3380   17.8000 N   0  0  0  0  0  0  0  0  0  0  0  0
    5.5930    0.9420   18.0910 C   0  0  0  0  0  0  0  0  0  0  0  0
    5.1410    1.0620   19.3980 C   0  0  0  0  0  0  0  0  0  0  0  0
    5.9120    0.5170   20.4250 C   0  0  0  0  0  0  0  0  0  0  0  0
    5.4700    0.6210   21.8830 C   0  0  0  0  0  0  0  0  0  0  0  0
  2  1  1  0
  3  2  1  0
  4  2  1  0
  5  4  1  0
  6  5  1  0
  7  6  1  0
  8  7  1  0
  9  8  1  0
 10  9  1  0
 10  5  1  0
 11 10  1  0
M  END
$$$$
