
     RDKit          3D

 17 19  0  0  0  0  0  0  0  0999 V2000
    9.8990    0.4490   21.0390 O   0  0  0  0  0  0  0  0  0  0  0  0
    9.0550    0.1340   21.8620 C   0  0  0  0  0  0  0  0  0  0  0  0
    9.4240   -0.4250   23.2180 C   0  0  2  0  0  0  0  0  0  0  0  0
   10.9160   -0.8690   23.4100 C   0  0  1  0  0  0  0  0  0  0  0  0
   11.9810   -1.1550   22.3100 C   0  0  0  0  0  0  0  0  0  0  0  0
   12.8250    0.0060   22.8340 C   0  0  0  0  0  0  0  0  0  0  0  0
   11.9600    0.0550   24.0950 C   0  0  0  0  0  0  0  0  0  0  0  0
   10.3880   -2.1200   24.1550 C   0  0  0  0  0  0  0  0  0  0  0  0
    9.0040   -1.8740   23.5270 C   0  0  0  0  0  0  0  0  0  0  0  0
    7.7360    0.3610   21.6930 N   0  0  0  0  0  0  0  0  0  0  0  0
    6.9780    0.4450   20.4970 C   0  0  0  0  0  0  0  0  0  0  0  0
    5.6270    0.8390   20.5790 C   0  0  0  0  0  0  0  0  0  0  0  0
    4.9360    1.0500   21.9020 C   0  0  0  0  0  0  0  0  0  0  0  0
    7.5190    0.1870   19.2340 C   0  0  0  0  0  0  0  0  0  0  0  0
    6.8480    0.3620   18.0910 N   0  0  0  0  0  0  0  0  0  0  0  0
    5.5870    0.7950   18.1820 C   0  0  0  0  0  0  0  0  0  0  0  0
    4.9440    1.0300   19.3810 C   0  0  0  0  0  0  0  0  0  0  0  0
  2  1  2  0
  3  2  1  6
  4  3  1  0
  4  5  1  6
  6  5  1  0
  7  6  1  0
  7  4  1  0
  8  4  1  0
  9  8  1  0
  9  3  1  0
 10  2  1  0
 11 10  1  0
 12 11  2  0
 13 12  1  0
 14 11  1  0
 15 14  2  0
 16 15  1  0
 17 16  2  0
 17 12  1  0
M  END
