
     RDKit          3D

 19 21  0  0  0  0  0  0  0  0999 V2000
   11.9170    0.2150   22.7360 Br  0  0  0  0  0  0  0  0  0  0  0  0
   10.2900   -0.2120   21.8500 C   0  0  0  0  0  0  0  0  0  0  0  0
   10.1040   -1.4970   21.3770 C   0  0  0  0  0  0  0  0  0  0  0  0
    8.8970   -1.8170   20.7730 C   0  0  0  0  0  0  0  0  0  0  0  0
    8.4060   -3.0750   20.1190 C   0  0  0  0  0  0  0  0  0  0  0  0
    8.4940   -4.1840   20.9980 O   0  0  0  0  0  0  0  0  0  0  0  0
    9.3130    0.7650   21.7210 C   0  0  0  0  0  0  0  0  0  0  0  0
    8.1000    0.4400   21.1350 C   0  0  0  0  0  0  0  0  0  0  0  0
    7.8950   -0.8610   20.6840 C   0  0  0  0  0  0  0  0  0  0  0  0
    6.7360   -1.4400   20.1570 N   0  0  0  0  0  0  0  0  0  0  0  0
    6.9430   -2.7580   19.8340 C   0  0  0  0  0  0  0  0  0  0  0  0
    6.0960   -3.5330   19.4370 O   0  0  0  0  0  0  0  0  0  0  0  0
    5.4620   -0.7500   19.9900 C   0  0  0  0  0  0  0  0  0  0  0  0
    5.5230    0.3360   18.9670 C   0  0  0  0  0  0  0  0  0  0  0  0
    4.5430    1.2910   18.9140 N   0  0  0  0  0  0  0  0  0  0  0  0
    4.9290    2.0050   17.9160 C   0  0  0  0  0  0  0  0  0  0  0  0
    6.0500    1.5940   17.3480 O   0  0  0  0  0  0  0  0  0  0  0  0
    6.4520    0.4590   18.0700 N   0  0  0  0  0  0  0  0  0  0  0  0
    9.1750   -3.2670   18.4340 S   0  0  0  0  0  0  0  0  0  0  0  0
  2  1  1  0
  3  2  1  0
  4  3  1  0
  5  4  1  0
  5  6  1  1
  7  2  1  0
  8  7  1  0
  9  8  1  0
  9  4  1  0
 10  9  1  0
 11 10  1  0
 11  5  1  0
 12 11  1  0
 13 10  1  0
 14 13  1  0
 15 14  1  0
 16 15  1  0
 17 16  1  0
 18 17  1  0
 18 14  1  0
  5 19  1  0
M  END
$$$$
