
     RDKit          3D

 24 27  0  0  0  0  0  0  0  0999 V2000
    7.4130   -0.2060   20.3790 N   0  0  0  0  0  0  0  0  0  0  0  0
   12.5830   -0.7220   22.3400 C   0  0  0  0  0  0  0  0  0  0  0  0
    9.2720    0.8340   24.1810 O   0  0  0  0  0  0  0  0  0  0  0  0
   13.9350   -1.3940   21.4790 Cl  0  0  0  0  0  0  0  0  0  0  0  0
   12.8150    0.1440   23.3970 C   0  0  0  0  0  0  0  0  0  0  0  0
    6.8280   -0.2170   18.0820 N   0  0  0  0  0  0  0  0  0  0  0  0
    8.8670    1.4040   21.0200 O   0  0  0  0  0  0  0  0  0  0  0  0
   11.7390    0.6990   24.0730 C   0  0  0  0  0  0  0  0  0  0  0  0
    6.2250    0.6950   17.2390 N   0  0  0  0  0  0  0  0  0  0  0  0
   10.4600    0.3750   23.6560 C   0  0  0  0  0  0  0  0  0  0  0  0
    5.9420    1.4180   19.3110 N   0  0  0  0  0  0  0  0  0  0  0  0
    8.2000   -0.0140   23.6790 C   0  0  0  0  0  0  0  0  0  0  0  0
    8.7390   -0.5970   22.3790 C   0  0  1  0  0  0  0  0  0  0  0  0
    8.3150    0.3270   21.2370 C   0  0  0  0  0  0  0  0  0  0  0  0
    6.6860    0.2300   19.3140 C   0  0  0  0  0  0  0  0  0  0  0  0
    5.7120    1.6370   17.9750 C   0  0  0  0  0  0  0  0  0  0  0  0
    5.3600    2.2110   20.3640 C   0  0  0  0  0  0  0  0  0  0  0  0
    6.1750    2.9140   21.2500 C   0  0  0  0  0  0  0  0  0  0  0  0
    5.6070    3.8100   22.1430 C   0  0  0  0  0  0  0  0  0  0  0  0
    4.2380    4.0050   22.1660 C   0  0  0  0  0  0  0  0  0  0  0  0
    3.4260    3.2950   21.3020 C   0  0  0  0  0  0  0  0  0  0  0  0
    3.9780    2.3950   20.4000 C   0  0  0  0  0  0  0  0  0  0  0  0
   10.2280   -0.4820   22.5990 C   0  0  0  0  0  0  0  0  0  0  0  0
   11.3060   -1.0510   21.9340 C   0  0  0  0  0  0  0  0  0  0  0  0
  4  2  1  0
  5  2  2  0
  8  5  1  0
  9  6  1  0
 10  3  1  0
 10  8  2  0
 12  3  1  0
 13 12  1  0
 14  7  2  0
 14  1  1  0
 13 14  1  6
 15 11  1  0
 15  6  2  0
 15  1  1  0
 16 11  1  0
 16  9  2  0
 17 11  1  0
 18 17  2  0
 19 18  1  0
 20 19  2  0
 21 20  1  0
 22 21  2  0
 22 17  1  0
 23 13  1  0
 23 10  1  0
 24 23  2  0
 24  2  1  0
M  END
