
     RDKit          3D

 20 21  0  0  0  0  0  0  0  0999 V2000
    6.8150    0.4150   17.6950 N   0  0  0  0  0  0  0  0  0  0  0  0
    4.3880    1.2590   21.1600 C   0  0  0  0  0  0  0  0  0  0  0  0
    9.2550    0.6010   21.0750 O   0  0  0  0  0  0  0  0  0  0  0  0
    5.2450    0.9470   19.9610 C   0  0  0  0  0  0  0  0  0  0  0  0
    7.0450    0.1640   21.3730 N   0  0  0  0  0  0  0  0  0  0  0  0
    4.8500    1.3470   18.6870 C   0  0  0  0  0  0  0  0  0  0  0  0
    5.6540    1.0670   17.6020 C   0  0  0  0  0  0  0  0  0  0  0  0
    7.2080    0.0360   18.9160 C   0  0  0  0  0  0  0  0  0  0  0  0
    6.4810    0.2870   20.0800 C   0  0  0  0  0  0  0  0  0  0  0  0
    8.3380    0.1570   21.7590 C   0  0  0  0  0  0  0  0  0  0  0  0
    8.5630   -0.3560   23.1670 C   0  0  0  0  0  0  0  0  0  0  0  0
    9.6640   -1.4390   23.3100 C   0  0  2  0  0  0  0  0  0  0  0  0
    9.3990   -2.5270   22.2580 C   0  0  0  0  0  0  0  0  0  0  0  0
    9.5310   -2.0930   24.6890 C   0  0  0  0  0  0  0  0  0  0  0  0
   11.0490   -0.7940   23.1650 C   0  0  0  0  0  0  0  0  0  0  0  0
   11.9810   -1.2710   22.2440 C   0  0  0  0  0  0  0  0  0  0  0  0
   13.2100   -0.6490   22.0920 C   0  0  0  0  0  0  0  0  0  0  0  0
   13.5240    0.4600   22.8450 C   0  0  0  0  0  0  0  0  0  0  0  0
   12.6170    0.9420   23.7680 C   0  0  0  0  0  0  0  0  0  0  0  0
   11.3920    0.3160   23.9330 C   0  0  0  0  0  0  0  0  0  0  0  0
  4  2  1  0
  6  4  2  0
  7  6  1  0
  7  1  2  0
  8  1  1  0
  9  4  1  0
  9  8  2  0
  9  5  1  0
 10  5  1  0
 10  3  2  0
 11 10  1  0
 12 11  1  0
 12 13  1  6
 14 12  1  0
 15 12  1  0
 16 15  2  0
 17 16  1  0
 18 17  2  0
 19 18  1  0
 20 19  2  0
 20 15  1  0
M  END
