
     RDKit          3D

 16 17  0  0  0  0  0  0  0  0999 V2000
    6.9790   -2.5680   20.8840 N   0  0  0  0  0  0  0  0  0  0  0  0
    7.1940   -2.4870   18.4480 C   0  0  0  0  0  0  0  0  0  0  0  0
    5.9120   -4.0960   19.6280 O   0  0  0  0  0  0  0  0  0  0  0  0
    6.6070   -3.0980   19.7020 C   0  0  0  0  0  0  0  0  0  0  0  0
    8.8460   -2.3200   23.0280 N   0  0  0  0  0  0  0  0  0  0  0  0
    6.7070   -3.2250   22.1680 C   0  0  0  0  0  0  0  0  0  0  0  0
    8.0230   -3.5380   22.8810 C   0  0  0  0  0  0  0  0  0  0  0  0
   10.1060   -2.6300   23.7100 C   0  0  0  0  0  0  0  0  0  0  0  0
   11.0930   -1.5010   23.6930 C   0  0  0  0  0  0  0  0  0  0  0  0
   12.1680   -1.2950   22.7830 C   0  0  0  0  0  0  0  0  0  0  0  0
   12.8590   -0.0910   23.0780 C   0  0  0  0  0  0  0  0  0  0  0  0
   12.3410    0.5660   24.1360 C   0  0  0  0  0  0  0  0  0  0  0  0
    9.0950   -1.7120   21.7070 C   0  0  0  0  0  0  0  0  0  0  0  0
    7.7880   -1.3560   21.0350 C   0  0  0  0  0  0  0  0  0  0  0  0
   11.0070   -0.2400   24.8290 S   0  0  0  0  0  0  0  0  0  0  0  0
    8.8200   -3.2290   18.1730 S   0  0  0  0  0  0  0  0  0  0  0  0
  4  3  2  0
  4  2  1  0
  4  1  1  0
  6  1  1  0
  7  6  1  0
  7  5  1  0
  8  5  1  0
  9  8  1  0
 10  9  2  0
 11 10  1  0
 12 11  2  0
 13  5  1  0
 14 13  1  0
 14  1  1  0
 15 12  1  0
 15  9  1  0
  2 16  1  0
M  END
