
     RDKit          3D

 13 14  0  0  0  0  0  0  0  0999 V2000
    9.1750   -4.8810   26.5250 C   0  0  2  0  0  0  0  0  0  0  0  0
   10.4170   -4.7300   25.8100 C   0  0  0  0  0  0  0  0  0  0  0  0
   10.6580   -3.3210   25.2580 C   0  0  0  0  0  0  0  0  0  0  0  0
    9.7110   -1.5560   24.2340 C   0  0  0  0  0  0  0  0  0  0  0  0
   11.0900   -1.1990   23.6610 C   0  0  0  0  0  0  0  0  0  0  0  0
   11.9950   -0.0920   24.1940 C   0  0  0  0  0  0  0  0  0  0  0  0
   13.2090   -0.0400   23.4310 C   0  0  0  0  0  0  0  0  0  0  0  0
   11.7340   -1.8400   22.5540 C   0  0  0  0  0  0  0  0  0  0  0  0
    8.3350   -2.8910   25.3120 C   0  0  0  0  0  0  0  0  0  0  0  0
    8.0760   -4.3270   25.7760 C   0  0  0  0  0  0  0  0  0  0  0  0
    9.5510   -2.7440   24.5330 N   0  0  0  0  0  0  0  0  0  0  0  0
    9.2930   -4.2850   27.7940 O   0  0  0  0  0  0  0  0  0  0  0  0
   13.1780   -1.1690   22.2730 S   0  0  0  0  0  0  0  0  0  0  0  0
  2  1  1  0
  3  2  1  0
  5  4  1  0
  6  5  1  0
  7  6  2  0
  8  5  2  0
 10  9  1  0
 10  1  1  0
 11  9  1  0
 11  4  1  0
 11  3  1  0
  1 12  1  1
 13  8  1  0
 13  7  1  0
M  END
