
     RDKit          3D

 21 22  0  0  0  0  0  0  0  0999 V2000
    6.8320    0.1990   17.9660 N   0  0  0  0  0  0  0  0  0  0  0  0
    5.9670    1.4260   22.0130 C   0  0  0  0  0  0  0  0  0  0  0  0
    9.8400    1.6960   21.2350 O   0  0  0  0  0  0  0  0  0  0  0  0
    6.2730    0.9660   20.6110 C   0  0  0  0  0  0  0  0  0  0  0  0
    8.3720   -0.0370   21.3400 N   0  0  0  0  0  0  0  0  0  0  0  0
    8.1500    0.1450   25.1470 O   0  0  0  0  0  0  0  0  0  0  0  0
    5.3860    1.2320   19.5670 C   0  0  0  0  0  0  0  0  0  0  0  0
    9.4520   -0.9510   23.6810 N   0  0  0  0  0  0  0  0  0  0  0  0
    5.7020    0.8340   18.2840 C   0  0  0  0  0  0  0  0  0  0  0  0
   10.0820   -4.9890   24.3640 N   0  0  0  0  0  0  0  0  0  0  0  0
    7.6890   -0.0670   18.9600 C   0  0  0  0  0  0  0  0  0  0  0  0
    7.4650    0.2840   20.2950 C   0  0  0  0  0  0  0  0  0  0  0  0
    9.4140    0.6990   21.8010 C   0  0  0  0  0  0  0  0  0  0  0  0
   10.0380    0.2380   23.1060 C   0  0  0  0  0  0  0  0  0  0  0  0
    8.4370   -0.8840   24.5380 C   0  0  0  0  0  0  0  0  0  0  0  0
    7.6080   -2.1450   24.6800 C   0  0  0  0  0  0  0  0  0  0  0  0
    8.4250   -3.3710   25.0230 C   0  0  0  0  0  0  0  0  0  0  0  0
    8.2940   -4.0140   26.2420 C   0  0  0  0  0  0  0  0  0  0  0  0
    9.0550   -5.1310   26.5210 C   0  0  0  0  0  0  0  0  0  0  0  0
    9.9340   -5.5800   25.5550 C   0  0  0  0  0  0  0  0  0  0  0  0
    9.3320   -3.9060   24.1210 C   0  0  0  0  0  0  0  0  0  0  0  0
  4  2  1  0
  7  4  2  0
  9  7  1  0
  9  1  2  0
 11  1  1  0
 12 11  2  0
 12  5  1  0
 12  4  1  0
 13  5  1  0
 13  3  2  0
 14 13  1  0
 14  8  1  0
 15  8  1  0
 15  6  2  0
 16 15  1  0
 17 16  1  0
 18 17  1  0
 19 18  2  0
 20 19  1  0
 20 10  2  0
 21 17  2  0
 21 10  1  0
M  END
