
     RDKit          3D

 25 28  0  0  0  0  0  0  0  0999 V2000
    9.3810    1.0790   21.1150 O   0  0  0  0  0  0  0  0  0  0  0  0
    8.8600    0.0770   21.5790 C   0  0  0  0  0  0  0  0  0  0  0  0
    9.4200   -0.5970   22.8450 C   0  0  1  0  0  0  0  0  0  0  0  0
   10.9290   -0.3500   22.8240 C   0  0  0  0  0  0  0  0  0  0  0  0
   11.7520   -1.0180   21.9190 C   0  0  0  0  0  0  0  0  0  0  0  0
   13.1080   -0.7570   21.9210 C   0  0  0  0  0  0  0  0  0  0  0  0
   14.1410   -1.6900   20.8830 Cl  0  0  0  0  0  0  0  0  0  0  0  0
   13.6760    0.1590   22.7790 C   0  0  0  0  0  0  0  0  0  0  0  0
   12.8760    0.8200   23.6890 C   0  0  0  0  0  0  0  0  0  0  0  0
   11.5170    0.5600   23.7070 C   0  0  0  0  0  0  0  0  0  0  0  0
   10.7930    1.2430   24.6460 O   0  0  0  0  0  0  0  0  0  0  0  0
    9.6670    0.4960   25.1390 C   0  0  0  0  0  0  0  0  0  0  0  0
    8.7080    0.1160   24.0270 C   0  0  0  0  0  0  0  0  0  0  0  0
    9.1790   -2.1180   22.9210 C   0  0  0  0  0  0  0  0  0  0  0  0
    7.8890   -0.5550   20.9180 N   0  0  0  0  0  0  0  0  0  0  0  0
    6.9640   -0.1740   19.9470 C   0  0  0  0  0  0  0  0  0  0  0  0
    5.8540    0.6590   20.2690 C   0  0  0  0  0  0  0  0  0  0  0  0
    5.3610    0.8360   21.5900 C   0  0  0  0  0  0  0  0  0  0  0  0
    4.1980    1.5110   21.8200 C   0  0  0  0  0  0  0  0  0  0  0  0
    3.4760    2.0540   20.7710 C   0  0  0  0  0  0  0  0  0  0  0  0
    3.9230    1.9410   19.4870 C   0  0  0  0  0  0  0  0  0  0  0  0
    5.1230    1.2440   19.1990 C   0  0  0  0  0  0  0  0  0  0  0  0
    5.5940    1.0250   17.8820 C   0  0  0  0  0  0  0  0  0  0  0  0
    6.6490    0.2790   17.5860 N   0  0  0  0  0  0  0  0  0  0  0  0
    7.2840   -0.3230   18.5990 C   0  0  0  0  0  0  0  0  0  0  0  0
  2  1  2  0
  3  2  1  0
  4  3  1  0
  5  4  2  0
  6  5  1  0
  7  6  1  0
  8  6  2  0
  9  8  1  0
 10  9  2  0
 10  4  1  0
 11 10  1  0
 12 11  1  0
 13 12  1  0
 13  3  1  0
  3 14  1  6
 15  2  1  0
 16 15  1  0
 17 16  1  0
 18 17  2  0
 19 18  1  0
 20 19  2  0
 21 20  1  0
 22 21  2  0
 22 17  1  0
 23 22  1  0
 24 23  2  0
 25 24  1  0
 25 16  2  0
M  END
