
     RDKit          3D

 31 35  0  0  0  0  0  0  0  0999 V2000
   13.6060   -2.0070   24.8070 S   0  0  0  0  0  0  0  0  0  0  0  0
    7.3080   -0.1870   19.8430 N   0  0  0  0  0  0  0  0  0  0  0  0
    9.6450   -0.3180   22.6930 N   0  0  0  0  0  0  0  0  0  0  0  0
    6.6730    0.4450   17.8730 N   0  0  0  0  0  0  0  0  0  0  0  0
    8.1600   -0.8690   20.7970 C   0  0  0  0  0  0  0  0  0  0  0  0
   13.8190   -1.8920   23.1100 C   0  0  0  0  0  0  0  0  0  0  0  0
    6.4050   -5.9260   27.3320 C   0  0  1  0  0  0  0  0  0  0  0  0
    6.7110   -3.5730   27.6500 O   0  0  0  0  0  0  0  0  0  0  0  0
   10.8090    0.3950   23.2070 C   0  0  0  0  0  0  0  0  0  0  0  0
    5.7760    0.9380   18.7920 C   0  0  0  0  0  0  0  0  0  0  0  0
    5.4470    0.8570   21.1990 C   0  0  0  0  0  0  0  0  0  0  0  0
    8.2140   -3.4710   25.1120 C   0  0  0  0  0  0  0  0  0  0  0  0
    4.2950    1.6160   21.0360 C   0  0  0  0  0  0  0  0  0  0  0  0
    3.8910    2.0400   19.7710 C   0  0  0  0  0  0  0  0  0  0  0  0
   12.8790   -1.0540   22.5540 C   0  0  0  0  0  0  0  0  0  0  0  0
    9.1230   -1.4000   23.4760 C   0  0  0  0  0  0  0  0  0  0  0  0
    4.9960   -6.2240   26.8900 C   0  0  0  0  0  0  0  0  0  0  0  0
    6.9670   -4.5710   26.9810 C   0  0  0  0  0  0  0  0  0  0  0  0
    9.5360   -2.7120   23.2470 C   0  0  0  0  0  0  0  0  0  0  0  0
   11.9810   -0.5050   23.5130 C   0  0  0  0  0  0  0  0  0  0  0  0
   12.2730   -0.9370   24.7750 C   0  0  0  0  0  0  0  0  0  0  0  0
    5.2710   -5.9690   28.3230 C   0  0  0  0  0  0  0  0  0  0  0  0
    8.2510   -1.1340   24.5290 C   0  0  0  0  0  0  0  0  0  0  0  0
    9.1080    0.0990   21.5060 C   0  0  0  0  0  0  0  0  0  0  0  0
    7.5830   -0.2290   18.5140 N   0  0  0  0  0  0  0  0  0  0  0  0
    9.3730    1.1860   21.0140 O   0  0  0  0  0  0  0  0  0  0  0  0
    6.1710    0.5300   20.0610 C   0  0  0  0  0  0  0  0  0  0  0  0
    4.6260    1.7090   18.6390 C   0  0  0  0  0  0  0  0  0  0  0  0
    7.8020   -2.1590   25.3420 C   0  0  0  0  0  0  0  0  0  0  0  0
    9.0870   -3.7370   24.0610 C   0  0  0  0  0  0  0  0  0  0  0  0
    7.7710   -4.5670   25.8910 N   0  0  0  0  0  0  0  0  0  0  0  0
  5  2  1  0
  6  1  1  0
  9  3  1  0
 10  4  1  0
 13 11  2  0
 14 13  1  0
 15  6  2  0
 16  3  1  0
 17  7  1  0
  7 18  1  6
 18  8  2  0
 19 16  2  0
 20  9  1  0
 20 15  1  0
 21 20  2  0
 21  1  1  0
 22 17  1  0
 22  7  1  0
 23 16  1  0
 24  5  1  0
 24  3  1  0
 25  4  2  0
 25  2  1  0
 26 24  2  0
 27 11  1  0
 27 10  2  0
 27  2  1  0
 28 14  2  0
 28 10  1  0
 29 23  2  0
 29 12  1  0
 30 19  1  0
 30 12  2  0
 31 18  1  0
 31 12  1  0
M  END
