
     RDKit          3D

 37 39  0  0  0  0  0  0  0  0999 V2000
    5.4350   -4.4530   19.6460 O   0  0  0  0  0  0  0  0  0  0  0  0
    6.1890   -4.5370   20.5960 C   0  0  0  0  0  0  0  0  0  0  0  0
    7.4780   -3.7510   20.5890 C   0  0  2  0  0  0  0  0  0  0  0  0
    8.5430   -4.4960   21.2160 O   0  0  0  0  0  0  0  0  0  0  0  0
    7.2250   -2.4130   21.3000 C   0  0  2  0  0  0  0  0  0  0  0  0
    6.3200   -1.4940   20.4560 C   0  0  0  0  0  0  0  0  0  0  0  0
    6.0740   -0.1320   21.1050 C   0  0  1  0  0  0  0  0  0  0  0  0
    5.2460    0.7800   20.2060 C   0  0  0  0  0  0  0  0  0  0  0  0
    4.1260    0.7740   21.2430 C   0  0  0  0  0  0  0  0  0  0  0  0
    4.9270   -0.1830   22.1180 C   0  0  0  0  0  0  0  0  0  0  0  0
    8.5070   -1.7190   21.4640 N   0  0  0  0  0  0  0  0  0  0  0  0
    9.0340   -1.5480   22.6090 C   0  0  0  0  0  0  0  0  0  0  0  0
   10.3430   -0.7890   22.6380 C   0  0  2  0  0  0  0  0  0  0  0  0
   11.3740   -1.6120   23.4180 C   0  0  2  0  0  0  0  0  0  0  0  0
   11.7550   -0.8200   24.6630 C   0  0  1  0  0  0  0  0  0  0  0  0
   12.8030   -1.0790   23.5750 C   0  0  2  0  0  0  0  0  0  0  0  0
   13.3200    0.0780   22.7170 C   0  0  0  0  0  0  0  0  0  0  0  0
   13.8100   -2.1610   23.9230 C   0  0  0  0  0  0  0  0  0  0  0  0
   10.9700    0.4970   24.6090 C   0  0  0  0  0  0  0  0  0  0  0  0
   10.2170    0.4910   23.3490 N   0  0  0  0  0  0  0  0  0  0  0  0
    9.5180    1.4980   22.8100 C   0  0  0  0  0  0  0  0  0  0  0  0
    9.2760    2.7240   23.6660 C   0  0  2  0  0  0  0  0  0  0  0  0
    7.7930    3.0870   23.8850 C   0  0  2  0  0  0  0  0  0  0  0  0
    7.0380    1.9030   24.4920 C   0  0  0  0  0  0  0  0  0  0  0  0
    7.1220    3.5480   22.5920 C   0  0  0  0  0  0  0  0  0  0  0  0
    7.6870    4.2390   24.8800 C   0  0  0  0  0  0  0  0  0  0  0  0
   10.0450    3.8470   23.1360 N   0  0  0  0  0  0  0  0  0  0  0  0
   11.0810    4.3220   23.7080 C   0  0  0  0  0  0  0  0  0  0  0  0
   11.6440    5.2970   23.1110 N   0  0  0  0  0  0  0  0  0  0  0  0
   12.8400    6.0070   23.5660 C   0  0  1  0  0  0  0  0  0  0  0  0
   12.6150    6.7290   24.8930 C   0  0  0  0  0  0  0  0  0  0  0  0
   14.0120    5.0400   23.6940 C   0  0  0  0  0  0  0  0  0  0  0  0
   13.2290    7.0540   22.5300 C   0  0  0  0  0  0  0  0  0  0  0  0
   11.4820    3.8620   24.7820 O   0  0  0  0  0  0  0  0  0  0  0  0
    9.1560    1.4550   21.6360 O   0  0  0  0  0  0  0  0  0  0  0  0
    8.5320   -1.9720   23.6530 O   0  0  0  0  0  0  0  0  0  0  0  0
    5.8940   -5.2450   21.6020 N   0  0  0  0  0  0  0  0  0  0  0  0
  2  1  2  0
  3  2  1  0
  3  4  1  1
  5  3  1  0
  5  6  1  6
  7  6  1  6
  8  7  1  0
  9  8  1  0
 10  9  1  0
 10  7  1  0
 11  5  1  0
 12 11  1  0
 13 12  1  1
 14 13  1  6
 15 14  1  0
 16 15  1  0
 16 14  1  0
 16 17  1  6
 18 16  1  0
 15 19  1  6
 20 13  1  0
 20 19  1  0
 21 20  1  0
 22 21  1  0
 23 22  1  0
 23 24  1  1
 25 23  1  0
 26 23  1  0
 22 27  1  6
 28 27  1  0
 29 28  1  0
 30 29  1  0
 30 31  1  1
 32 30  1  0
 33 30  1  0
 34 28  2  0
 35 21  2  0
 36 12  2  0
 37  2  1  0
M  END
$$$$
