
     RDKit          3D

  4  4  0  0  0  0  0  0  0  0999 V2000
    3.6830   11.0980   -6.9160 N   0  0  0  0  0  0  0  0  0  0  0  0
    4.3840   12.3240   -6.7460 C   0  0  2  0  0  0  0  0  0  0  0  0
    4.3290   13.2950   -7.9380 C   0  0  0  0  0  0  0  0  0  0  0  0
    5.6240   12.6120   -7.6100 C   0  0  0  0  0  0  0  0  0  0  0  0
  2  1  1  6
  3  2  1  0
  4  3  1  0
  4  2  1  0
M  END
$$$$
