
     RDKit          3D

 17 19  0  0  0  0  0  0  0  0999 V2000
    9.2210    0.8630   20.9830 O   0  0  0  0  0  0  0  0  0  0  0  0
    8.6110   -0.0820   21.4710 C   0  0  0  0  0  0  0  0  0  0  0  0
    9.0620   -0.7430   22.7500 C   0  0  0  0  0  0  0  0  0  0  0  0
   10.4100   -1.4460   22.6440 C   0  0  1  0  0  0  0  0  0  0  0  0
   11.6750   -0.5920   22.3890 C   0  0  0  0  0  0  0  0  0  0  0  0
   12.3870   -1.2790   23.5680 C   0  0  2  0  0  0  0  0  0  0  0  0
   13.4220   -0.7310   24.4920 C   0  0  0  0  0  0  0  0  0  0  0  0
   13.7420   -1.9080   23.6090 C   0  0  0  0  0  0  0  0  0  0  0  0
   11.0330   -1.8760   23.9920 C   0  0  0  0  0  0  0  0  0  0  0  0
    7.4680   -0.5750   20.9640 N   0  0  0  0  0  0  0  0  0  0  0  0
    6.7310   -0.0090   19.9010 C   0  0  0  0  0  0  0  0  0  0  0  0
    5.5740    0.7390   20.1790 C   0  0  0  0  0  0  0  0  0  0  0  0
    5.0750    0.9440   21.5870 C   0  0  0  0  0  0  0  0  0  0  0  0
    7.1510   -0.1330   18.5760 C   0  0  0  0  0  0  0  0  0  0  0  0
    6.5060    0.4270   17.5470 N   0  0  0  0  0  0  0  0  0  0  0  0
    5.4020    1.1320   17.8230 C   0  0  0  0  0  0  0  0  0  0  0  0
    4.9120    1.3130   19.1010 C   0  0  0  0  0  0  0  0  0  0  0  0
  2  1  2  0
  3  2  1  0
  4  3  1  1
  5  4  1  0
  6  5  1  6
  7  6  1  0
  8  7  1  0
  8  6  1  0
  9  4  1  0
  9  6  1  0
 10  2  1  0
 11 10  1  0
 12 11  2  0
 13 12  1  0
 14 11  1  0
 15 14  2  0
 16 15  1  0
 17 16  2  0
 17 12  1  0
M  END
