
     RDKit          3D

 18 19  0  0  0  0  0  0  0  0999 V2000
   23.7760  -16.5950   25.9840 N   0  0  0  0  0  0  0  0  0  0  0  0
   24.5710  -17.7220   25.5110 C   0  0  0  0  0  0  0  0  0  0  0  0
   25.6570  -17.8610   25.9540 O   0  0  0  0  0  0  0  0  0  0  0  0
   24.0600  -18.7660   24.5060 C   0  0  2  0  0  0  0  0  0  0  0  0
   24.8090  -18.8020   23.2300 C   0  0  0  0  0  0  0  0  0  0  0  0
   24.4150  -20.0260   22.3960 C   0  0  0  0  0  0  0  0  0  0  0  0
   23.0130  -20.5870   22.5770 N   0  0  0  0  0  0  0  0  0  0  0  0
   22.1920  -19.9860   23.6790 C   0  0  0  0  0  0  0  0  0  0  0  0
   22.6390  -18.6190   24.1690 C   0  0  0  0  0  0  0  0  0  0  0  0
   22.4100  -21.6650   21.7930 C   0  0  0  0  0  0  0  0  0  0  0  0
   21.3050  -22.0210   22.0460 O   0  0  0  0  0  0  0  0  0  0  0  0
   23.1260  -22.2990   20.7040 N   0  0  0  0  0  0  0  0  0  0  0  0
   22.5270  -23.3580   19.9250 C   0  0  0  0  0  0  0  0  0  0  0  0
   22.4330  -23.1870   18.5570 C   0  0  0  0  0  0  0  0  0  0  0  0
   21.8750  -24.1850   17.7700 C   0  0  0  0  0  0  0  0  0  0  0  0
   21.4140  -25.3560   18.3610 C   0  0  0  0  0  0  0  0  0  0  0  0
   21.5090  -25.5270   19.7370 C   0  0  0  0  0  0  0  0  0  0  0  0
   22.0660  -24.5280   20.5200 C   0  0  0  0  0  0  0  0  0  0  0  0
  2  1  1  0
  3  2  2  0
  4  2  1  1
  5  4  1  0
  6  5  1  0
  7  6  1  0
  8  7  1  0
  9  8  1  0
  9  4  1  0
 10  7  1  0
 11 10  2  0
 12 10  1  0
 13 12  1  0
 14 13  2  0
 15 14  1  0
 16 15  2  0
 17 16  1  0
 18 17  2  0
 18 13  1  0
M  END
