
     RDKit          3D

 18 19  0  0  0  0  0  0  0  0999 V2000
    9.8980    0.3570   24.2570 C   0  0  0  0  0  0  0  0  0  0  0  0
    6.4970    0.4400   17.3880 N   0  0  0  0  0  0  0  0  0  0  0  0
   12.1430   -0.6370   23.0230 C   0  0  0  0  0  0  0  0  0  0  0  0
    5.3690    0.7790   19.9390 C   0  0  0  0  0  0  0  0  0  0  0  0
   12.2810    0.3850   23.9450 C   0  0  0  0  0  0  0  0  0  0  0  0
    4.7930    1.0260   21.3100 C   0  0  0  0  0  0  0  0  0  0  0  0
    9.7610   -0.6330   23.2930 C   0  0  0  0  0  0  0  0  0  0  0  0
    4.8650    1.4420   18.8260 C   0  0  0  0  0  0  0  0  0  0  0  0
    8.1440   -0.3430   21.4620 C   0  0  0  0  0  0  0  0  0  0  0  0
    7.0270   -0.7490   20.8360 N   0  0  0  0  0  0  0  0  0  0  0  0
    8.8740    0.5560   21.0420 O   0  0  0  0  0  0  0  0  0  0  0  0
    6.4580   -0.0830   19.7340 C   0  0  0  0  0  0  0  0  0  0  0  0
    8.4030   -1.0420   22.7810 C   0  0  0  0  0  0  0  0  0  0  0  0
    6.9790   -0.2190   18.4460 C   0  0  0  0  0  0  0  0  0  0  0  0
   11.1460    0.8710   24.5750 C   0  0  0  0  0  0  0  0  0  0  0  0
   10.9040   -1.1410   22.6930 C   0  0  0  0  0  0  0  0  0  0  0  0
    5.4550    1.2540   17.5930 C   0  0  0  0  0  0  0  0  0  0  0  0
   13.8400   -1.5310   22.1970 I   0  0  0  0  0  0  0  0  0  0  0  0
  5  3  1  0
  6  4  1  0
  7  1  2  0
  8  4  1  0
 10  9  1  0
 11  9  2  0
 12  4  2  0
 12 10  1  0
 13  9  1  0
 13  7  1  0
 14 12  1  0
 14  2  2  0
 15  1  1  0
 15  5  2  0
 16  7  1  0
 16  3  2  0
 17  8  2  0
 17  2  1  0
 18  3  1  0
M  END
