
     RDKit          3D

 22 24  0  0  0  0  0  0  0  0999 V2000
    4.8070    1.4570   19.1690 N   0  0  0  0  0  0  0  0  0  0  0  0
    8.6260    0.1900   21.0720 C   0  0  0  0  0  0  0  0  0  0  0  0
    8.5760    1.4130   20.9750 O   0  0  0  0  0  0  0  0  0  0  0  0
    7.4080   -0.6790   20.8370 C   0  0  0  0  0  0  0  0  0  0  0  0
    6.3050    0.6420   17.5000 N   0  0  0  0  0  0  0  0  0  0  0  0
   12.4130    2.9650   23.5020 O   0  0  0  0  0  0  0  0  0  0  0  0
    6.4950   -0.1430   19.7590 C   0  0  0  0  0  0  0  0  0  0  0  0
    9.7450   -0.4980   21.3860 N   0  0  0  0  0  0  0  0  0  0  0  0
   13.7730    6.9940   22.5120 O   0  0  0  0  0  0  0  0  0  0  0  0
    5.4330    0.6910   20.0680 C   0  0  0  0  0  0  0  0  0  0  0  0
   12.6490    4.9630   22.1510 N   0  0  0  0  0  0  0  0  0  0  0  0
    5.2800    1.3820   17.9240 C   0  0  0  0  0  0  0  0  0  0  0  0
    6.8970   -0.1090   18.4340 C   0  0  0  0  0  0  0  0  0  0  0  0
   10.9310   -0.0230   21.9920 C   0  0  0  0  0  0  0  0  0  0  0  0
   11.9700   -0.9320   22.1620 C   0  0  0  0  0  0  0  0  0  0  0  0
   13.1610   -0.5190   22.7390 C   0  0  0  0  0  0  0  0  0  0  0  0
   13.3170    0.7860   23.1760 C   0  0  0  0  0  0  0  0  0  0  0  0
   12.2690    1.6800   23.0290 C   0  0  0  0  0  0  0  0  0  0  0  0
   13.3310    3.7610   22.7100 C   0  0  1  0  0  0  0  0  0  0  0  0
   14.0690    4.7320   23.6440 C   0  0  0  0  0  0  0  0  0  0  0  0
   13.5150    5.8140   22.7310 C   0  0  0  0  0  0  0  0  0  0  0  0
   11.0780    1.2900   22.4320 C   0  0  0  0  0  0  0  0  0  0  0  0
  3  2  2  0
  4  2  1  0
  7  4  1  0
  8  2  1  0
 10  1  2  0
 10  7  1  0
 12  1  1  0
 12  5  2  0
 13  7  2  0
 13  5  1  0
 14  8  1  0
 15 14  2  0
 16 15  1  0
 17 16  2  0
 18 17  1  0
 18  6  1  0
 19 11  1  0
 19  6  1  1
 20 19  1  0
 21 20  1  0
 21 11  1  0
 21  9  2  0
 22 18  2  0
 22 14  1  0
M  END
