
     RDKit          3D

 19 20  0  0  0  0  0  0  0  0999 V2000
   13.8470   -1.8410   21.2210 Cl  0  0  0  0  0  0  0  0  0  0  0  0
   12.6310   -1.0990   22.2200 C   0  0  0  0  0  0  0  0  0  0  0  0
   13.0040   -0.1450   23.1470 C   0  0  0  0  0  0  0  0  0  0  0  0
   12.0340    0.3740   23.9950 C   0  0  0  0  0  0  0  0  0  0  0  0
   10.7120   -0.0220   23.8700 C   0  0  0  0  0  0  0  0  0  0  0  0
   11.3180   -1.5030   22.0840 C   0  0  0  0  0  0  0  0  0  0  0  0
   10.3380   -0.9390   22.8930 C   0  0  2  0  0  0  0  0  0  0  0  0
    8.8710   -1.2470   22.6160 C   0  0  1  0  0  0  0  0  0  0  0  0
    7.9970   -1.1750   23.8710 C   0  0  0  0  0  0  0  0  0  0  0  0
    8.4150   -0.3170   21.4870 C   0  0  0  0  0  0  0  0  0  0  0  0
    9.0580    0.6840   21.1770 O   0  0  0  0  0  0  0  0  0  0  0  0
    7.2580   -0.6730   20.8820 N   0  0  0  0  0  0  0  0  0  0  0  0
    6.6270    0.0620   19.8650 C   0  0  0  0  0  0  0  0  0  0  0  0
    5.4760    0.8150   20.1520 C   0  0  1  0  0  0  0  0  0  0  0  0
    4.9710    1.0010   21.5590 C   0  0  0  0  0  0  0  0  0  0  0  0
    4.8600    1.4620   19.0880 C   0  0  0  0  0  0  0  0  0  0  0  0
    5.4100    1.3680   17.8230 C   0  0  0  0  0  0  0  0  0  0  0  0
    6.5250    0.6820   17.5480 N   0  0  0  0  0  0  0  0  0  0  0  0
    7.1140    0.0360   18.5590 C   0  0  0  0  0  0  0  0  0  0  0  0
  2  1  1  0
  3  2  1  0
  4  3  1  0
  5  4  1  0
  6  2  1  0
  7  5  1  6
  7  6  1  0
  8  7  1  0
  8  9  1  1
 10  8  1  0
 11 10  1  0
 12 10  1  0
 13 12  1  0
 14 13  1  0
 14 15  1  1
 16 14  1  0
 17 16  1  0
 18 17  1  0
 19 18  1  0
 19 13  1  0
M  END
$$$$
