
     RDKit          3D

 26 29  0  0  0  0  0  0  0  0999 V2000
    9.1640    1.4810   21.1050 O   0  0  0  0  0  0  0  0  0  0  0  0
    8.9130    0.3190   21.4000 C   0  0  0  0  0  0  0  0  0  0  0  0
    9.4850   -0.3660   22.6750 C   0  0  1  0  0  0  0  0  0  0  0  0
   10.9870   -0.1990   22.7390 C   0  0  0  0  0  0  0  0  0  0  0  0
   11.8160   -0.7790   21.7830 C   0  0  0  0  0  0  0  0  0  0  0  0
   13.1840   -0.6200   21.8880 C   0  0  2  0  0  0  0  0  0  0  0  0
   14.2200   -1.5310   20.8260 Cl  0  0  0  0  0  0  0  0  0  0  0  0
   13.7520    0.1650   22.8670 C   0  0  0  0  0  0  0  0  0  0  0  0
   12.9380    0.7690   23.8070 C   0  0  0  0  0  0  0  0  0  0  0  0
   11.5710    0.5640   23.7520 C   0  0  0  0  0  0  0  0  0  0  0  0
   10.8430    1.1300   24.7690 O   0  0  0  0  0  0  0  0  0  0  0  0
    9.4880    1.4500   24.4190 C   0  0  0  0  0  0  0  0  0  0  0  0
    8.7580    0.2350   23.8890 C   0  0  0  0  0  0  0  0  0  0  0  0
    8.9900   -1.7130   22.5970 O   0  0  0  0  0  0  0  0  0  0  0  0
    9.7770   -2.7420   23.2020 C   0  0  0  0  0  0  0  0  0  0  0  0
    8.0880   -0.4510   20.6640 N   0  0  0  0  0  0  0  0  0  0  0  0
    7.1810   -0.0120   19.6840 C   0  0  1  0  0  0  0  0  0  0  0  0
    5.9500    0.5690   20.1220 C   0  0  0  0  0  0  0  0  0  0  0  0
    5.5670    0.6750   21.4850 C   0  0  0  0  0  0  0  0  0  0  0  0
    4.4040    1.2970   21.8420 C   0  0  0  0  0  0  0  0  0  0  0  0
    3.5680    1.8400   20.8770 C   0  0  0  0  0  0  0  0  0  0  0  0
    3.8890    1.7610   19.5530 C   0  0  0  0  0  0  0  0  0  0  0  0
    5.0830    1.1190   19.1380 C   0  0  0  0  0  0  0  0  0  0  0  0
    5.4890    1.0350   17.7870 C   0  0  0  0  0  0  0  0  0  0  0  0
    6.6270    0.4820   17.3830 N   0  0  0  0  0  0  0  0  0  0  0  0
    7.4400   -0.0260   18.3180 C   0  0  0  0  0  0  0  0  0  0  0  0
  2  1  1  0
  3  2  1  0
  4  3  1  0
  5  4  1  0
  6  5  1  0
  6  7  1  1
  8  6  1  0
  9  8  1  0
 10  9  1  0
 10  4  1  0
 11 10  1  0
 12 11  1  0
 13 12  1  0
 13  3  1  0
  3 14  1  6
 15 14  1  0
 16  2  1  0
 17 16  1  1
 18 17  1  0
 19 18  1  0
 20 19  1  0
 21 20  1  0
 22 21  1  0
 23 22  1  0
 23 18  1  0
 24 23  1  0
 25 24  1  0
 26 25  1  0
 26 17  1  0
M  END
$$$$
