
     RDKit          3D

 27 30  0  0  0  0  0  0  0  0999 V2000
    6.2830    1.0320   16.8360 O   0  0  0  0  0  0  0  0  0  0  0  0
    5.6430    0.8300   17.8770 C   0  0  0  0  0  0  0  0  0  0  0  0
    5.9620   -0.1960   18.8160 C   0  0  0  0  0  0  0  0  0  0  0  0
    4.5960    1.6480   18.2140 N   0  0  0  0  0  0  0  0  0  0  0  0
    3.8780    1.5590   19.4050 C   0  0  0  0  0  0  0  0  0  0  0  0
    4.2360    0.5840   20.3570 C   0  0  0  0  0  0  0  0  0  0  0  0
    3.5610    0.5440   21.5770 C   0  0  0  0  0  0  0  0  0  0  0  0
    2.5070    1.4110   21.8170 C   0  0  0  0  0  0  0  0  0  0  0  0
    2.1330    2.3370   20.8650 C   0  0  0  0  0  0  0  0  0  0  0  0
    2.8190    2.4280   19.6640 C   0  0  0  0  0  0  0  0  0  0  0  0
    5.3120   -0.3380   20.0090 C   0  0  0  0  0  0  0  0  0  0  0  0
    5.7200   -1.4410   20.9300 C   0  0  0  0  0  0  0  0  0  0  0  0
    5.1670   -2.5330   20.8440 O   0  0  0  0  0  0  0  0  0  0  0  0
    6.6580   -1.1810   21.8560 N   0  0  0  0  0  0  0  0  0  0  0  0
    7.2440   -2.1550   22.7840 C   0  0  0  0  0  0  0  0  0  0  0  0
    8.7510   -2.2570   22.5610 C   0  0  0  0  0  0  0  0  0  0  0  0
    7.2440    0.1490   21.9920 C   0  0  0  0  0  0  0  0  0  0  0  0
    8.7440    0.1520   21.8960 C   0  0  0  0  0  0  0  0  0  0  0  0
    9.3180    1.0830   21.3510 O   0  0  0  0  0  0  0  0  0  0  0  0
    9.3900   -0.9340   22.4090 N   0  0  0  0  0  0  0  0  0  0  0  0
   10.7690   -0.8660   22.7550 C   0  0  1  0  0  0  0  0  0  0  0  0
   11.7000   -1.5190   21.9510 C   0  0  0  0  0  0  0  0  0  0  0  0
   13.0420   -1.3620   22.2230 C   0  0  0  0  0  0  0  0  0  0  0  0
   14.2010   -2.0970   21.1580 Cl  0  0  0  0  0  0  0  0  0  0  0  0
   11.1940   -0.0980   23.8360 C   0  0  0  0  0  0  0  0  0  0  0  0
   12.5500    0.0290   24.0970 C   0  0  0  0  0  0  0  0  0  0  0  0
   13.4860   -0.6010   23.2880 C   0  0  0  0  0  0  0  0  0  0  0  0
  2  1  1  0
  3  2  1  0
  4  2  1  0
  5  4  1  0
  6  5  1  0
  7  6  1  0
  8  7  1  0
  9  8  1  0
 10  9  1  0
 10  5  1  0
 11  6  1  0
 11  3  1  0
 12 11  1  0
 13 12  1  0
 14 12  1  0
 15 14  1  0
 16 15  1  0
 17 14  1  0
 18 17  1  0
 19 18  1  0
 20 18  1  0
 20 16  1  0
 21 20  1  6
 22 21  1  0
 23 22  1  0
 24 23  1  0
 25 21  1  0
 26 25  1  0
 27 26  1  0
 27 23  1  0
M  END
$$$$
