
     RDKit          3D

 28 31  0  0  0  0  0  0  0  0999 V2000
    9.0240   -4.6260   25.6540 N   0  0  0  0  0  0  0  0  0  0  0  0
    9.9230   -5.7180   25.3290 C   0  0  0  0  0  0  0  0  0  0  0  0
    8.9260    1.5610   21.1220 O   0  0  0  0  0  0  0  0  0  0  0  0
    7.9220   -4.9410   26.5550 C   0  0  0  0  0  0  0  0  0  0  0  0
    9.2980    0.2820   22.9550 N   0  0  0  0  0  0  0  0  0  0  0  0
    9.0690   -3.4350   24.9610 C   0  0  0  0  0  0  0  0  0  0  0  0
   13.1080    2.7910   22.7330 N   0  0  0  0  0  0  0  0  0  0  0  0
   10.0050   -3.2300   23.9330 C   0  0  0  0  0  0  0  0  0  0  0  0
   11.7620    2.8370   22.9630 N   0  0  0  0  0  0  0  0  0  0  0  0
   10.0910   -2.0110   23.2850 C   0  0  0  0  0  0  0  0  0  0  0  0
    7.2400   -0.2900   19.9690 N   0  0  0  0  0  0  0  0  0  0  0  0
    9.2270   -0.9760   23.6220 C   0  0  0  0  0  0  0  0  0  0  0  0
    7.6530   -0.3580   18.6770 N   0  0  0  0  0  0  0  0  0  0  0  0
    8.2760   -1.1750   24.6130 C   0  0  0  0  0  0  0  0  0  0  0  0
    6.8210    0.3130   17.9330 N   0  0  0  0  0  0  0  0  0  0  0  0
    8.2030   -2.3840   25.2800 C   0  0  0  0  0  0  0  0  0  0  0  0
    9.8590    1.4180   23.6790 C   0  0  0  0  0  0  0  0  0  0  0  0
   11.2940    1.6370   23.3520 C   0  0  0  0  0  0  0  0  0  0  0  0
   12.3600    0.7750   23.3690 C   0  0  0  0  0  0  0  0  0  0  0  0
   13.4580    1.5350   22.9730 C   0  0  0  0  0  0  0  0  0  0  0  0
    8.8260    0.4860   21.6910 C   0  0  0  0  0  0  0  0  0  0  0  0
    8.1650   -0.7090   21.0020 C   0  0  0  0  0  0  0  0  0  0  0  0
    5.8440    0.8420   18.7490 C   0  0  0  0  0  0  0  0  0  0  0  0
    4.7210    1.6120   18.4610 C   0  0  0  0  0  0  0  0  0  0  0  0
    3.8820    1.9790   19.5070 C   0  0  0  0  0  0  0  0  0  0  0  0
    4.1660    1.6010   20.8210 C   0  0  0  0  0  0  0  0  0  0  0  0
    5.2910    0.8400   21.1180 C   0  0  0  0  0  0  0  0  0  0  0  0
    6.1110    0.4640   20.0620 C   0  0  0  0  0  0  0  0  0  0  0  0
  2  1  1  0
  4  1  1  0
  6  1  1  0
  8  6  2  0
  9  7  1  0
 10  8  1  0
 12 10  2  0
 12  5  1  0
 13 11  1  0
 14 12  1  0
 15 13  2  0
 16 14  2  0
 16  6  1  0
 17  5  1  0
 18 17  1  0
 18  9  1  0
 19 18  2  0
 20 19  1  0
 20  7  2  0
 21  3  2  0
 21  5  1  0
 22 21  1  0
 22 11  1  0
 23 15  1  0
 24 23  2  0
 25 24  1  0
 26 25  2  0
 27 26  1  0
 28 27  2  0
 28 23  1  0
 28 11  1  0
M  END
