
     RDKit          3D

 26 29  0  0  0  0  0  0  0  0999 V2000
    6.6700    0.9790   16.9160 O   0  0  0  0  0  0  0  0  0  0  0  0
    6.0810    0.7010   17.9610 C   0  0  0  0  0  0  0  0  0  0  0  0
    6.4400   -0.3850   18.8140 C   0  0  0  0  0  0  0  0  0  0  0  0
    5.0410    1.4810   18.3940 N   0  0  0  0  0  0  0  0  0  0  0  0
    4.3760    1.3030   19.6040 C   0  0  0  0  0  0  0  0  0  0  0  0
    4.7690    0.2580   20.4620 C   0  0  0  0  0  0  0  0  0  0  0  0
    4.1430    0.1220   21.7010 C   0  0  0  0  0  0  0  0  0  0  0  0
    3.1130    0.9770   22.0540 C   0  0  0  0  0  0  0  0  0  0  0  0
    2.7030    1.9700   21.1920 C   0  0  0  0  0  0  0  0  0  0  0  0
    3.3330    2.1460   19.9710 C   0  0  0  0  0  0  0  0  0  0  0  0
    5.8240   -0.6330   19.9970 C   0  0  0  0  0  0  0  0  0  0  0  0
    6.1570   -1.8740   20.7340 C   0  0  0  0  0  0  0  0  0  0  0  0
    5.3020   -2.7370   20.8850 O   0  0  0  0  0  0  0  0  0  0  0  0
    7.3880   -2.0080   21.2300 N   0  0  0  0  0  0  0  0  0  0  0  0
    8.5660   -1.1480   21.3840 C   0  0  0  0  0  0  0  0  0  0  0  0
    7.8780   -3.0180   22.1730 C   0  0  0  0  0  0  0  0  0  0  0  0
    9.2400   -2.3090   22.1320 C   0  0  2  0  0  0  0  0  0  0  0  0
    9.5720   -2.0250   23.5150 O   0  0  0  0  0  0  0  0  0  0  0  0
   10.3640   -0.9460   23.8040 C   0  0  0  0  0  0  0  0  0  0  0  0
   10.0240   -0.2480   24.9800 C   0  0  0  0  0  0  0  0  0  0  0  0
    8.9860   -0.7840   25.6960 O   0  0  0  0  0  0  0  0  0  0  0  0
    8.6370   -0.1660   26.9360 C   0  0  0  0  0  0  0  0  0  0  0  0
   11.4340   -0.5190   23.0290 C   0  0  0  0  0  0  0  0  0  0  0  0
   12.1410    0.6120   23.4070 C   0  0  0  0  0  0  0  0  0  0  0  0
   11.7900    1.3110   24.5430 C   0  0  0  0  0  0  0  0  0  0  0  0
   10.7430    0.8820   25.3420 C   0  0  0  0  0  0  0  0  0  0  0  0
  2  1  2  0
  3  2  1  0
  4  2  1  0
  5  4  1  0
  6  5  2  0
  7  6  1  0
  8  7  2  0
  9  8  1  0
 10  9  2  0
 10  5  1  0
 11  6  1  0
 11  3  2  0
 12 11  1  0
 13 12  2  0
 14 12  1  0
 15 14  1  0
 16 14  1  0
 17 15  1  0
 17 16  1  0
 17 18  1  1
 19 18  1  0
 20 19  2  0
 21 20  1  0
 22 21  1  0
 23 19  1  0
 24 23  2  0
 25 24  1  0
 26 20  1  0
 26 25  2  0
M  END
