
     RDKit          3D

 18 19  0  0  0  0  0  0  0  0999 V2000
    8.3500   -2.1410   23.1280 N   0  0  0  0  0  0  0  0  0  0  0  0
   11.1510    2.2260   24.6270 C   0  0  0  0  0  0  0  0  0  0  0  0
    5.7030   -4.1490   19.6550 O   0  0  0  0  0  0  0  0  0  0  0  0
   11.3850    0.8400   24.1000 C   0  0  0  0  0  0  0  0  0  0  0  0
    6.7040   -2.4980   20.8310 N   0  0  0  0  0  0  0  0  0  0  0  0
   12.5650    0.5070   23.4520 C   0  0  0  0  0  0  0  0  0  0  0  0
   12.7740   -0.7670   22.9540 C   0  0  0  0  0  0  0  0  0  0  0  0
   11.8000   -1.7360   23.1080 C   0  0  0  0  0  0  0  0  0  0  0  0
   10.6210   -1.4400   23.7730 C   0  0  0  0  0  0  0  0  0  0  0  0
    9.5350   -2.4720   23.9240 C   0  0  0  0  0  0  0  0  0  0  0  0
    7.4910   -3.3160   22.9740 C   0  0  0  0  0  0  0  0  0  0  0  0
    6.2770   -2.9920   22.1370 C   0  0  0  0  0  0  0  0  0  0  0  0
    7.5160   -1.2940   20.9770 C   0  0  0  0  0  0  0  0  0  0  0  0
    8.7320   -1.6060   21.8160 C   0  0  0  0  0  0  0  0  0  0  0  0
    6.4050   -3.1440   19.6800 C   0  0  0  0  0  0  0  0  0  0  0  0
    7.0220   -2.6310   18.4090 C   0  0  0  0  0  0  0  0  0  0  0  0
   10.4220   -0.1470   24.2430 C   0  0  0  0  0  0  0  0  0  0  0  0
    8.7280   -3.2440   18.3120 S   0  0  0  0  0  0  0  0  0  0  0  0
  4  2  1  0
  6  4  2  0
  7  6  1  0
  8  7  2  0
  9  8  1  0
 10  9  1  0
 10  1  1  0
 11  1  1  0
 12  5  1  0
 12 11  1  0
 13  5  1  0
 14 13  1  0
 14  1  1  0
 15  5  1  0
 15  3  2  0
 16 15  1  0
 17  9  2  0
 17  4  1  0
 16 18  1  0
M  END
