
     RDKit          3D

 18 19  0  0  0  0  0  0  0  0999 V2000
   13.8410   -1.7990   21.2570 Cl  0  0  0  0  0  0  0  0  0  0  0  0
   12.6700   -1.0110   22.2800 C   0  0  0  0  0  0  0  0  0  0  0  0
   13.1010   -0.1180   23.2430 C   0  0  0  0  0  0  0  0  0  0  0  0
   12.1640    0.4300   24.1100 C   0  0  0  0  0  0  0  0  0  0  0  0
   10.8230    0.1060   23.9840 C   0  0  0  0  0  0  0  0  0  0  0  0
   11.3310   -1.3240   22.1280 C   0  0  0  0  0  0  0  0  0  0  0  0
   10.3890   -0.7480   22.9790 C   0  0  0  0  0  0  0  0  0  0  0  0
    8.9160   -0.9580   22.7250 C   0  0  0  0  0  0  0  0  0  0  0  0
    8.4560   -0.1670   21.5150 C   0  0  0  0  0  0  0  0  0  0  0  0
    9.0860    0.7960   21.0880 O   0  0  0  0  0  0  0  0  0  0  0  0
    7.2950   -0.5890   20.9790 N   0  0  0  0  0  0  0  0  0  0  0  0
    6.6300    0.0340   19.9040 C   0  0  0  0  0  0  0  0  0  0  0  0
    5.4900    0.8230   20.1420 C   0  0  0  0  0  0  0  0  0  0  0  0
    4.8590    0.9320   21.5050 C   0  0  0  0  0  0  0  0  0  0  0  0
    7.1440   -0.0390   18.6110 C   0  0  0  0  0  0  0  0  0  0  0  0
    6.6190    0.6260   17.5760 N   0  0  0  0  0  0  0  0  0  0  0  0
    5.5390    1.3800   17.8130 C   0  0  0  0  0  0  0  0  0  0  0  0
    4.9520    1.5070   19.0560 C   0  0  0  0  0  0  0  0  0  0  0  0
  2  1  1  0
  3  2  2  0
  4  3  1  0
  5  4  2  0
  6  2  1  0
  7  5  1  0
  7  6  2  0
  8  7  1  0
  9  8  1  0
 10  9  2  0
 11  9  1  0
 12 11  1  0
 13 12  2  0
 14 13  1  0
 15 12  1  0
 16 15  2  0
 17 16  1  0
 18 17  2  0
 18 13  1  0
M  END
