
     RDKit          3D

 25 28  0  0  0  0  0  0  0  0999 V2000
   10.6080    0.9050   24.8160 O   0  0  0  0  0  0  0  0  0  0  0  0
    5.3170    1.1180   21.4860 C   0  0  0  0  0  0  0  0  0  0  0  0
    9.2860   -0.7100   22.7400 C   0  0  1  0  0  0  0  0  0  0  0  0
    4.2580    1.9500   21.7110 C   0  0  0  0  0  0  0  0  0  0  0  0
    3.5610    2.5090   20.6510 C   0  0  0  0  0  0  0  0  0  0  0  0
    3.9150    2.2320   19.3630 C   0  0  0  0  0  0  0  0  0  0  0  0
   14.0760   -1.6710   20.8800 Cl  0  0  0  0  0  0  0  0  0  0  0  0
    5.0140    1.3800   19.0850 C   0  0  0  0  0  0  0  0  0  0  0  0
    5.4650    1.1020   17.7720 C   0  0  0  0  0  0  0  0  0  0  0  0
    7.1890   -0.1770   18.5180 C   0  0  0  0  0  0  0  0  0  0  0  0
    9.3150    1.0170   21.0470 O   0  0  0  0  0  0  0  0  0  0  0  0
    6.8760    0.0000   19.8630 C   0  0  0  0  0  0  0  0  0  0  0  0
    8.7610    0.0110   21.4710 C   0  0  0  0  0  0  0  0  0  0  0  0
    8.9150   -2.1360   22.7510 N   0  0  0  0  0  0  0  0  0  0  0  0
    7.6410   -0.5210   20.9330 N   0  0  0  0  0  0  0  0  0  0  0  0
    5.7380    0.8110   20.1670 C   0  0  0  0  0  0  0  0  0  0  0  0
   10.8000   -0.5250   22.8540 C   0  0  0  0  0  0  0  0  0  0  0  0
   11.6580   -1.1520   21.9550 C   0  0  0  0  0  0  0  0  0  0  0  0
   13.0230   -0.9550   22.0650 C   0  0  0  0  0  0  0  0  0  0  0  0
   13.5670   -0.1670   23.0540 C   0  0  0  0  0  0  0  0  0  0  0  0
   12.7310    0.4500   23.9630 C   0  0  0  0  0  0  0  0  0  0  0  0
   11.3620    0.2700   23.8610 C   0  0  0  0  0  0  0  0  0  0  0  0
    9.2670    1.2170   24.3850 C   0  0  0  0  0  0  0  0  0  0  0  0
    6.5200    0.3600   17.4900 N   0  0  0  0  0  0  0  0  0  0  0  0
    8.5380   -0.0220   23.9060 C   0  0  0  0  0  0  0  0  0  0  0  0
  4  2  2  0
  5  4  1  0
  6  5  2  0
  8  6  1  0
  9  8  1  0
 12 10  2  0
 13 11  2  0
 13  3  1  0
  3 14  1  6
 15 13  1  0
 15 12  1  0
 16  8  2  0
 16  2  1  0
 16 12  1  0
 17  3  1  0
 18 17  2  0
 19  7  1  0
 19 18  1  0
 20 19  2  0
 21 20  1  0
 22 17  1  0
 22  1  1  0
 22 21  2  0
 23  1  1  0
 24 10  1  0
 24  9  2  0
 25 23  1  0
 25  3  1  0
M  END
