
     RDKit          3D

 31 32  0  0  0  0  0  0  0  0999 V2000
    7.6610   -1.3880   21.7700 N   0  0  0  0  0  0  0  0  0  0  0  0
    8.2310   -4.4090   20.6330 C   0  0  0  0  0  0  0  0  0  0  0  0
    5.6630   -2.1730   21.0610 O   0  0  0  0  0  0  0  0  0  0  0  0
    7.2330   -3.8310   21.6600 C   0  0  0  0  0  0  0  0  0  0  0  0
    8.3180    1.7510   22.9070 N   0  0  0  0  0  0  0  0  0  0  0  0
    9.3060    1.2230   20.9690 O   0  0  0  0  0  0  0  0  0  0  0  0
    6.7980   -2.3990   21.4440 C   0  0  0  0  0  0  0  0  0  0  0  0
    6.7550    0.3350   17.7390 N   0  0  0  0  0  0  0  0  0  0  0  0
   11.9210    4.1180   22.8590 O   0  0  0  0  0  0  0  0  0  0  0  0
    7.2890    0.0290   21.4840 C   0  0  1  0  0  0  0  0  0  0  0  0
    8.4040    1.0480   21.7780 C   0  0  0  0  0  0  0  0  0  0  0  0
    9.3180    2.7420   23.2900 C   0  0  0  0  0  0  0  0  0  0  0  0
   10.6850    2.1190   23.5410 C   0  0  0  0  0  0  0  0  0  0  0  0
   11.7810    3.1140   23.8420 C   0  0  0  0  0  0  0  0  0  0  0  0
   13.2120    4.7160   22.8920 C   0  0  0  0  0  0  0  0  0  0  0  0
    6.6160    0.3000   20.1470 C   0  0  0  0  0  0  0  0  0  0  0  0
    7.2110   -0.0440   18.9390 C   0  0  0  0  0  0  0  0  0  0  0  0
    5.6370    1.0660   17.7130 C   0  0  0  0  0  0  0  0  0  0  0  0
    4.9470    1.4420   18.8520 C   0  0  0  0  0  0  0  0  0  0  0  0
    5.4490    1.0490   20.0780 C   0  0  0  0  0  0  0  0  0  0  0  0
    8.9050   -1.6360   22.4500 C   0  0  0  0  0  0  0  0  0  0  0  0
   10.1000   -1.6870   21.7380 C   0  0  0  0  0  0  0  0  0  0  0  0
   11.3030   -1.8380   22.4050 C   0  0  0  0  0  0  0  0  0  0  0  0
   11.3490   -1.9490   23.7940 C   0  0  0  0  0  0  0  0  0  0  0  0
   10.1460   -1.9300   24.4950 C   0  0  0  0  0  0  0  0  0  0  0  0
    8.9360   -1.7670   23.8380 C   0  0  0  0  0  0  0  0  0  0  0  0
   12.6880   -1.9770   24.5430 C   0  0  0  0  0  0  0  0  0  0  0  0
   13.8810   -2.1940   23.6030 C   0  0  0  0  0  0  0  0  0  0  0  0
   12.7100   -3.0970   25.5960 C   0  0  0  0  0  0  0  0  0  0  0  0
   12.8930   -0.6300   25.2300 C   0  0  0  0  0  0  0  0  0  0  0  0
    8.1770   -3.7260   18.9460 S   0  0  0  0  0  0  0  0  0  0  0  0
  4  2  1  0
  7  4  1  0
  7  3  2  0
  7  1  1  0
 10  1  1  0
 10 11  1  6
 11  6  2  0
 11  5  1  0
 12  5  1  0
 13 12  1  0
 14 13  1  0
 14  9  1  0
 15  9  1  0
 16 10  1  0
 17 16  1  0
 17  8  2  0
 18  8  1  0
 19 18  2  0
 20 19  1  0
 20 16  2  0
 21  1  1  0
 22 21  2  0
 23 22  1  0
 24 23  2  0
 25 24  1  0
 26 25  2  0
 26 21  1  0
 27 24  1  0
 27 28  1  0
 29 27  1  0
 30 27  1  0
  2 31  1  0
M  END
