
     RDKit          3D

 23 24  0  0  0  0  0  0  0  0999 V2000
    8.2390   -4.7220   26.2860 S   0  0  2  0  0  0  0  0  0  0  0  0
    8.1650   -4.8190   24.6690 N   0  0  0  0  0  0  0  0  0  0  0  0
    6.8830    0.3640   17.7170 N   0  0  0  0  0  0  0  0  0  0  0  0
    8.1110   -3.6240   23.8100 C   0  0  0  0  0  0  0  0  0  0  0  0
   12.0900   -1.3550   22.0180 C   0  0  0  0  0  0  0  0  0  0  0  0
    7.5470   -5.8620   26.8010 O   0  0  0  0  0  0  0  0  0  0  0  0
    5.7860    0.9230   18.2480 C   0  0  0  0  0  0  0  0  0  0  0  0
    9.3650   -2.7610   23.8700 C   0  0  0  0  0  0  0  0  0  0  0  0
    6.4100    0.3080   20.4590 C   0  0  0  0  0  0  0  0  0  0  0  0
    7.5560   -0.2850   19.9400 C   0  0  0  0  0  0  0  0  0  0  0  0
    8.5580   -1.1440   22.0810 C   0  0  0  0  0  0  0  0  0  0  0  0
   10.9460   -1.1710   22.7860 C   0  0  0  0  0  0  0  0  0  0  0  0
   13.1980    0.4320   23.1730 C   0  0  0  0  0  0  0  0  0  0  0  0
    7.7430   -0.2260   18.5570 C   0  0  0  0  0  0  0  0  0  0  0  0
   13.2090   -0.5570   22.2090 C   0  0  0  0  0  0  0  0  0  0  0  0
   12.0710    0.6200   23.9500 C   0  0  0  0  0  0  0  0  0  0  0  0
    7.3560   -3.2890   26.7750 C   0  0  0  0  0  0  0  0  0  0  0  0
    8.5190   -0.9610   20.7350 N   0  0  0  0  0  0  0  0  0  0  0  0
    9.6150   -4.5410   26.6300 O   0  0  0  0  0  0  0  0  0  0  0  0
    7.7550   -0.6370   22.8650 O   0  0  0  0  0  0  0  0  0  0  0  0
    5.5100    0.9190   19.6020 C   0  0  0  0  0  0  0  0  0  0  0  0
    9.7100   -2.0310   22.5610 C   0  0  1  0  0  0  0  0  0  0  0  0
   10.9510   -0.1790   23.7600 C   0  0  0  0  0  0  0  0  0  0  0  0
  2  1  1  0
  4  2  1  0
  6  1  2  0
  7  3  2  0
  8  4  1  0
 10  9  1  0
 12  5  2  0
 14 10  2  0
 14  3  1  0
 15 13  2  0
 15  5  1  0
 16 13  1  0
  1 17  1  1
 18 10  1  0
 18 11  1  0
 19  1  2  0
 20 11  2  0
 21  9  2  0
 21  7  1  0
 22 11  1  0
 22  8  1  1
 22 12  1  0
 23 16  2  0
 23 12  1  0
M  END
