
     RDKit          3D

 19 20  0  0  0  0  0  0  0  0999 V2000
    6.5450    0.5880   17.5830 N   0  0  0  0  0  0  0  0  0  0  0  0
    5.1290    0.8490   21.6560 C   0  0  0  0  0  0  0  0  0  0  0  0
    9.2760    0.9340   21.0360 O   0  0  0  0  0  0  0  0  0  0  0  0
    5.6170    0.7110   20.2360 C   0  0  0  0  0  0  0  0  0  0  0  0
    7.5910   -0.5990   20.9350 N   0  0  0  0  0  0  0  0  0  0  0  0
    4.9220    1.3110   19.1940 C   0  0  0  0  0  0  0  0  0  0  0  0
    5.4110    1.2220   17.9050 C   0  0  0  0  0  0  0  0  0  0  0  0
    7.2160   -0.0040   18.5770 C   0  0  0  0  0  0  0  0  0  0  0  0
    6.8090    0.0190   19.9130 C   0  0  0  0  0  0  0  0  0  0  0  0
    8.8060   -0.1600   21.3520 C   0  0  0  0  0  0  0  0  0  0  0  0
    9.5710   -1.1340   22.2260 C   0  0  0  0  0  0  0  0  0  0  0  0
   10.7990   -0.4770   22.8990 C   0  0  0  0  0  0  0  0  0  0  0  0
   11.7150   -1.3760   23.6960 C   0  0  0  0  0  0  0  0  0  0  0  0
   13.0760   -1.1100   23.7650 C   0  0  0  0  0  0  0  0  0  0  0  0
   13.9070   -1.8480   24.5990 C   0  0  0  0  0  0  0  0  0  0  0  0
   13.3960   -2.8750   25.3760 C   0  0  0  0  0  0  0  0  0  0  0  0
   12.0590   -3.1440   25.2730 C   0  0  0  0  0  0  0  0  0  0  0  0
   11.2020   -2.4270   24.4550 C   0  0  0  0  0  0  0  0  0  0  0  0
   11.5470   -4.1850   26.0000 F   0  0  0  0  0  0  0  0  0  0  0  0
  4  2  1  0
  6  4  2  0
  7  6  1  0
  7  1  2  0
  8  1  1  0
  9  8  2  0
  9  5  1  0
  9  4  1  0
 10  5  1  0
 10  3  2  0
 11 10  1  0
 12 11  1  0
 13 12  1  0
 14 13  2  0
 15 14  1  0
 16 15  2  0
 17 16  1  0
 18 17  2  0
 18 13  1  0
 19 17  1  0
M  END
