
     RDKit          3D

 18 20  0  0  0  0  0  0  0  0999 V2000
    0.3100   29.6800   -9.3320 O   0  0  0  0  0  0  0  0  0  0  0  0
   -0.8520   29.8410   -9.1380 C   0  0  0  0  0  0  0  0  0  0  0  0
   -1.3080   30.9720   -8.3390 N   0  0  0  0  0  0  0  0  0  0  0  0
   -2.7350   31.1310   -8.1140 C   0  0  0  0  0  0  0  0  0  0  0  0
   -3.3120   32.4050   -8.7280 C   0  0  0  0  0  0  0  0  0  0  0  0
   -2.4380   33.6430   -8.5120 C   0  0  0  0  0  0  0  0  0  0  0  0
   -1.1690   33.6270   -9.3650 C   0  0  0  0  0  0  0  0  0  0  0  0
    0.0580   33.0850   -8.6420 C   0  0  0  0  0  0  0  0  0  0  0  0
   -0.2670   31.8520   -7.8170 C   0  0  0  0  0  0  0  0  0  0  0  0
   -1.8280   28.8040   -9.6910 C   0  0  0  0  0  0  0  0  0  0  0  0
   -2.3150   28.8150  -10.9830 C   0  0  0  0  0  0  0  0  0  0  0  0
   -3.1960   27.8260  -11.4170 C   0  0  0  0  0  0  0  0  0  0  0  0
   -3.6010   26.7950  -10.5490 C   0  0  0  0  0  0  0  0  0  0  0  0
   -4.4680   25.6990  -10.7360 O   0  0  0  0  0  0  0  0  0  0  0  0
   -4.6230   25.1010   -9.4820 C   0  0  0  0  0  0  0  0  0  0  0  0
   -3.6830   25.6670   -8.6060 O   0  0  0  0  0  0  0  0  0  0  0  0
   -3.1260   26.7780   -9.2760 C   0  0  0  0  0  0  0  0  0  0  0  0
   -2.2280   27.7880   -8.8390 C   0  0  0  0  0  0  0  0  0  0  0  0
  2  1  1  0
  3  2  1  0
  4  3  1  0
  5  4  1  0
  6  5  1  0
  7  6  1  0
  8  7  1  0
  9  3  1  0
  9  8  1  0
 10  2  1  0
 11 10  1  0
 12 11  1  0
 13 12  1  0
 14 13  1  0
 15 14  1  0
 16 15  1  0
 17 16  1  0
 17 13  1  0
 18 17  1  0
 18 10  1  0
M  END
$$$$
