
     RDKit          3D

  8  7  0  0  0  0  0  0  0  0999 V2000
    6.3560   -5.0130   16.9420 N   0  0  0  0  0  0  0  0  0  0  0  0
    7.7670   -5.3160   16.8520 C   0  0  2  0  0  0  0  0  0  0  0  0
    7.9910   -6.6670   16.1930 C   0  0  0  0  0  0  0  0  0  0  0  0
    7.2710   -7.6320   16.3870 O   0  0  0  0  0  0  0  0  0  0  0  0
    8.4540   -5.2670   18.2270 C   0  0  0  0  0  0  0  0  0  0  0  0
    8.3900   -3.6470   18.9250 S   0  0  0  0  0  0  0  0  0  0  0  0
    6.7800   -3.5700   19.5830 O   0  0  0  0  0  0  0  0  0  0  0  0
    6.3640   -4.7570   20.4020 O   0  0  0  0  0  0  0  0  0  0  0  0
  2  1  1  1
  3  2  1  0
  4  3  1  0
  5  2  1  0
  6  5  1  0
  7  6  1  0
  8  7  1  0
M  END
