
     RDKit          3D

 49 53  0  0  0  0  0  0  0  0999 V2000
   10.3780    0.7040   23.1090 N   0  0  0  0  0  0  0  0  0  0  0  0
   10.6030   -0.6140   22.4540 C   0  0  2  0  0  0  0  0  0  0  0  0
    7.5750   -2.4000   21.1160 C   0  0  2  0  0  0  0  0  0  0  0  0
    7.6890   -3.8260   20.6140 C   0  0  2  0  0  0  0  0  0  0  0  0
    6.7360   -1.5250   20.1960 C   0  0  0  0  0  0  0  0  0  0  0  0
    6.1900   -0.4180   21.1020 C   0  0  0  0  0  0  0  0  0  0  0  0
    5.4010    0.6250   20.3350 C   0  0  0  0  0  0  0  0  0  0  0  0
    6.3920   -4.6120   20.7940 C   0  0  0  0  0  0  0  0  0  0  0  0
    5.0690   -6.1710   22.1750 C   0  0  1  0  0  0  0  0  0  0  0  0
    4.8310   -6.4980   23.6500 C   0  0  0  0  0  0  0  0  0  0  0  0
    4.0060   -5.4170   22.9810 C   0  0  0  0  0  0  0  0  0  0  0  0
    9.7410    1.7230   22.5150 C   0  0  0  0  0  0  0  0  0  0  0  0
    9.4030    2.9270   23.3930 C   0  0  2  0  0  0  0  0  0  0  0  0
   10.8140    4.8470   23.5970 C   0  0  0  0  0  0  0  0  0  0  0  0
   11.4910    6.0120   22.9420 C   0  0  1  0  0  0  0  0  0  0  0  0
    7.8980    3.1570   23.6340 C   0  0  2  0  0  0  0  0  0  0  0  0
    9.3180   -1.3450   22.3830 C   0  0  0  0  0  0  0  0  0  0  0  0
    8.7550   -1.5430   23.4650 O   0  0  0  0  0  0  0  0  0  0  0  0
    6.2310   -5.3410   21.8640 N   0  0  0  0  0  0  0  0  0  0  0  0
   10.0720    4.1040   22.8530 N   0  0  0  0  0  0  0  0  0  0  0  0
   11.3070    7.1660   23.8260 N   0  0  0  0  0  0  0  0  0  0  0  0
    8.8980   -1.6740   21.2210 N   0  0  0  0  0  0  0  0  0  0  0  0
   10.8900    9.2940   25.6780 N   0  0  0  0  0  0  0  0  0  0  0  0
    8.5700   10.6950   25.5830 N   0  0  0  0  0  0  0  0  0  0  0  0
   11.6640   -1.3470   23.2450 C   0  0  1  0  0  0  0  0  0  0  0  0
    7.3140    1.8950   24.3150 C   0  0  0  0  0  0  0  0  0  0  0  0
   10.1690    7.7780   23.8160 C   0  0  0  0  0  0  0  0  0  0  0  0
    7.1470    3.5440   22.3440 C   0  0  0  0  0  0  0  0  0  0  0  0
    7.7740    4.3580   24.5850 C   0  0  0  0  0  0  0  0  0  0  0  0
   12.9220   -1.6620   22.4740 C   0  0  0  0  0  0  0  0  0  0  0  0
   13.8740   -0.4600   22.6850 C   0  0  0  0  0  0  0  0  0  0  0  0
   12.9930    5.7970   22.7580 C   0  0  2  0  0  0  0  0  0  0  0  0
   13.5340    6.9460   21.9290 C   0  0  0  0  0  0  0  0  0  0  0  0
   14.9980    6.7730   21.5250 C   0  0  0  0  0  0  0  0  0  0  0  0
   15.2350    5.3690   20.9000 C   0  0  0  0  0  0  0  0  0  0  0  0
   14.7430    4.2680   21.8320 C   0  0  0  0  0  0  0  0  0  0  0  0
   13.2560    4.4330   22.1020 C   0  0  0  0  0  0  0  0  0  0  0  0
    9.9350    8.9480   24.7600 C   0  0  0  0  0  0  0  0  0  0  0  0
   10.7110   10.3290   26.5270 C   0  0  0  0  0  0  0  0  0  0  0  0
    9.5190   11.0430   26.4810 C   0  0  0  0  0  0  0  0  0  0  0  0
    8.7360    9.6650   24.7340 C   0  0  0  0  0  0  0  0  0  0  0  0
    8.7270   -4.5540   21.3040 O   0  0  0  0  0  0  0  0  0  0  0  0
    5.5980   -4.5520   19.8800 O   0  0  0  0  0  0  0  0  0  0  0  0
    9.4000    1.7670   21.3090 O   0  0  0  0  0  0  0  0  0  0  0  0
   10.9430    4.7020   24.8030 O   0  0  0  0  0  0  0  0  0  0  0  0
    9.2540    7.4430   23.0440 O   0  0  0  0  0  0  0  0  0  0  0  0
   12.0830   -0.3300   24.3050 C   0  0  2  0  0  0  0  0  0  0  0  0
   10.9300    0.6520   24.4550 C   0  0  0  0  0  0  0  0  0  0  0  0
   13.3250    0.4020   23.8110 C   0  0  0  0  0  0  0  0  0  0  0  0
  2  1  1  0
  4  3  1  0
  3  5  1  6
  6  5  1  0
  7  6  1  0
  8  4  1  0
 10  9  1  0
 11 10  1  0
 11  9  1  0
 12  1  1  0
 13 12  1  0
 15 14  1  0
 16 13  1  0
  2 17  1  1
 18 17  2  0
  9 19  1  1
 19  8  1  0
 20 14  1  0
 13 20  1  6
 15 21  1  1
 22  3  1  0
 22 17  1  0
 25  2  1  0
 16 26  1  1
 27 21  1  0
 28 16  1  0
 29 16  1  0
 25 30  1  6
 31 30  1  0
 32 15  1  0
 32 33  1  6
 34 33  1  0
 35 34  1  0
 36 35  1  0
 37 36  1  0
 37 32  1  0
 38 27  1  0
 38 23  2  0
 39 23  1  0
 40 39  2  0
 40 24  1  0
 41 38  1  0
 41 24  2  0
  4 42  1  1
 43  8  2  0
 44 12  2  0
 45 14  2  0
 46 27  2  0
 47 25  1  0
 48  1  1  0
 47 48  1  6
 49 47  1  0
 49 31  1  0
M  END
$$$$
