
     RDKit          3D

 23 25  0  0  0  0  0  0  0  0999 V2000
   13.5420    0.5140   23.1830 F   0  0  0  0  0  0  0  0  0  0  0  0
   12.3510   -0.0860   23.4640 C   0  0  1  0  0  0  0  0  0  0  0  0
   12.1030   -1.3270   22.9320 C   0  0  0  0  0  0  0  0  0  0  0  0
   10.9430   -1.9800   23.3070 C   0  0  0  0  0  0  0  0  0  0  0  0
   11.4900    0.5440   24.3220 C   0  0  0  0  0  0  0  0  0  0  0  0
   10.3170   -0.1040   24.6660 C   0  0  0  0  0  0  0  0  0  0  0  0
   10.0230   -1.3670   24.1560 C   0  0  1  0  0  0  0  0  0  0  0  0
    8.6920   -1.9810   24.4250 C   0  0  1  0  0  0  0  0  0  0  0  0
    8.1600   -1.8450   25.5280 O   0  0  0  0  0  0  0  0  0  0  0  0
    7.9730   -2.6980   23.3290 C   0  0  0  0  0  0  0  0  0  0  0  0
    7.8540   -2.3780   21.9560 C   0  0  2  0  0  0  0  0  0  0  0  0
    8.3630   -1.1560   21.2460 C   0  0  0  0  0  0  0  0  0  0  0  0
    7.2680   -3.8820   23.5680 N   0  0  0  0  0  0  0  0  0  0  0  0
    7.0120   -4.5290   24.7660 C   0  0  0  0  0  0  0  0  0  0  0  0
    6.2160   -5.6190   24.7840 C   0  0  0  0  0  0  0  0  0  0  0  0
    5.6620   -6.1200   23.5810 C   0  0  0  0  0  0  0  0  0  0  0  0
    5.9120   -5.5100   22.3940 C   0  0  0  0  0  0  0  0  0  0  0  0
    6.7220   -4.3450   22.3660 C   0  0  1  0  0  0  0  0  0  0  0  0
    7.0770   -3.4370   21.3530 C   0  0  0  0  0  0  0  0  0  0  0  0
    6.6960   -3.5800   19.9350 C   0  0  0  0  0  0  0  0  0  0  0  0
    5.9060   -4.4550   19.6220 O   0  0  0  0  0  0  0  0  0  0  0  0
    7.2690   -2.6490   18.8900 C   0  0  0  0  0  0  0  0  0  0  0  0
    8.7190   -3.4860   18.4680 S   0  0  0  0  0  0  0  0  0  0  0  0
  2  1  1  1
  3  2  1  0
  4  3  1  0
  5  2  1  0
  6  5  1  0
  7  6  1  6
  7  4  1  0
  8  7  1  0
  8  9  1  6
 10  8  1  0
 11 10  1  0
 11 12  1  1
 13 10  1  0
 14 13  1  0
 15 14  1  0
 16 15  1  0
 17 16  1  0
 18 17  1  1
 18 13  1  0
 19 18  1  0
 19 11  1  0
 20 19  1  0
 21 20  1  0
 22 20  1  0
 22 23  1  0
M  END
