
     RDKit          3D

 15 17  0  0  0  0  0  0  0  0999 V2000
    2.2620  -24.9220    0.8610 C   0  0  0  0  0  0  0  0  0  0  0  0
    2.0350  -23.5580    0.7290 C   0  0  0  0  0  0  0  0  0  0  0  0
    2.9900  -22.7690    0.2120 N   0  0  0  0  0  0  0  0  0  0  0  0
    4.1420  -23.3080   -0.1700 C   0  0  0  0  0  0  0  0  0  0  0  0
    5.2110  -22.4350   -0.7460 N   0  0  0  0  0  0  0  0  0  0  0  0
    6.4300  -22.8470   -1.1380 C   0  0  0  0  0  0  0  0  0  0  0  0
    7.2880  -21.5420   -1.3520 C   0  0  0  0  0  0  0  0  0  0  0  0
    6.1940  -20.4420   -1.6110 C   0  0  1  0  0  0  0  0  0  0  0  0
    6.7290  -19.0310   -1.3430 C   0  0  0  0  0  0  0  0  0  0  0  0
    7.4220  -18.7430   -2.4820 C   0  0  0  0  0  0  0  0  0  0  0  0
    6.6690  -19.5590   -3.7040 O   0  0  0  0  0  0  0  0  0  0  0  0
    5.7780  -20.3690   -3.1630 C   0  0  0  0  0  0  0  0  0  0  0  0
    5.1680  -20.7850   -0.8020 C   0  0  0  0  0  0  0  0  0  0  0  0
    4.3730  -24.6850   -0.0420 C   0  0  0  0  0  0  0  0  0  0  0  0
    3.4260  -25.4590    0.4780 N   0  0  0  0  0  0  0  0  0  0  0  0
  2  1  2  0
  3  2  1  0
  4  3  2  0
  5  4  1  0
  6  5  1  0
  7  6  1  0
  8  7  1  6
  9  8  1  0
 10  9  1  0
 11 10  1  0
 12 11  1  0
 12  8  1  0
 13  5  1  0
 13  8  1  0
 14  4  1  0
 15 14  2  0
 15  1  1  0
M  END
