
     RDKit          3D

  8  8  0  0  0  0  0  0  0  0999 V2000
    5.4470    5.1590   -3.3260 C   0  0  0  0  0  0  0  0  0  0  0  0
    4.8240    6.1440   -2.4960 O   0  0  0  0  0  0  0  0  0  0  0  0
    7.4120    3.5930   -2.8850 C   0  0  0  0  0  0  0  0  0  0  0  0
    8.1380    2.7340   -2.0620 C   0  0  0  0  0  0  0  0  0  0  0  0
    7.7020    2.4830   -0.7580 C   0  0  0  0  0  0  0  0  0  0  0  0
    6.5470    3.0920   -0.2880 C   0  0  0  0  0  0  0  0  0  0  0  0
    5.8190    3.9530   -1.1070 C   0  0  0  0  0  0  0  0  0  0  0  0
    6.2560    4.2030   -2.4090 C   0  0  0  0  0  0  0  0  0  0  0  0
  2  1  1  0
  4  3  2  0
  5  4  1  0
  6  5  2  0
  7  6  1  0
  8  1  1  0
  8  7  2  0
  8  3  1  0
M  END
$$$$
