
     RDKit          3D

 17 18  0  0  0  0  0  0  0  0999 V2000
   26.0410    4.7670   13.4310 C   0  0  0  0  0  0  0  0  0  0  0  0
   25.6140    4.3990   12.0050 C   0  0  0  0  0  0  0  0  0  0  0  0
   25.3620    5.3710   11.0430 C   0  0  0  0  0  0  0  0  0  0  0  0
   24.9940    5.0110    9.7610 C   0  0  0  0  0  0  0  0  0  0  0  0
   24.8730    3.6790    9.4310 C   0  0  0  0  0  0  0  0  0  0  0  0
   23.2480    2.6370    7.8060 C   0  0  0  0  0  0  0  0  0  0  0  0
   22.9370    2.2770    6.3390 C   0  0  2  0  0  0  0  0  0  0  0  0
   23.3400    1.0950    6.0950 C   0  0  0  0  0  0  0  0  0  0  0  0
   23.9950    1.1510    4.7290 C   0  0  0  0  0  0  0  0  0  0  0  0
   24.6750    2.5070    4.8200 C   0  0  0  0  0  0  0  0  0  0  0  0
   25.1320    2.7020   10.3740 C   0  0  0  0  0  0  0  0  0  0  0  0
   25.5010    3.0600   11.6610 C   0  0  0  0  0  0  0  0  0  0  0  0
   26.0700    6.1400   13.8990 N   0  0  0  0  0  0  0  0  0  0  0  0
   24.4960    3.3160    8.0880 N   0  0  0  0  0  0  0  0  0  0  0  0
   26.3770    3.9080   14.1830 O   0  0  0  0  0  0  0  0  0  0  0  0
   22.4980    2.3610    8.6850 O   0  0  0  0  0  0  0  0  0  0  0  0
   23.7760    3.2410    5.3450 O   0  0  0  0  0  0  0  0  0  0  0  0
  2  1  1  0
  3  2  1  0
  4  3  1  0
  5  4  1  0
  7  6  1  1
  8  7  1  0
  9  8  1  0
 10  9  1  0
 11  5  1  0
 12 11  1  0
 12  2  1  0
 13  1  1  0
 14  6  1  0
 14  5  1  0
 15  1  1  0
 16  6  1  0
 17 10  1  0
 17  7  1  0
M  END
$$$$
