
     RDKit          3D

 29 32  0  0  0  0  0  0  0  0999 V2000
   13.2730   -1.6210   24.4680 N   0  0  0  0  0  0  0  0  0  0  0  0
   13.8160   -2.3370   25.6170 C   0  0  0  0  0  0  0  0  0  0  0  0
    9.3080    1.3980   21.0660 O   0  0  0  0  0  0  0  0  0  0  0  0
   13.6370   -1.7340   23.1450 C   0  0  0  0  0  0  0  0  0  0  0  0
    9.6220   -0.0450   22.7830 N   0  0  0  0  0  0  0  0  0  0  0  0
   12.8330   -0.8860   22.4440 C   0  0  0  0  0  0  0  0  0  0  0  0
    6.5780    0.5590   17.7090 N   0  0  0  0  0  0  0  0  0  0  0  0
   11.9820   -0.2820   23.4190 C   0  0  0  0  0  0  0  0  0  0  0  0
    9.0730   -5.0740   26.6440 N   0  0  0  0  0  0  0  0  0  0  0  0
   10.8290    0.6540   23.2080 C   0  0  0  0  0  0  0  0  0  0  0  0
   12.2650   -0.7280   24.6540 N   0  0  0  0  0  0  0  0  0  0  0  0
    9.0380    0.3330   21.6090 C   0  0  0  0  0  0  0  0  0  0  0  0
    8.0580   -0.6330   20.9710 C   0  0  0  0  0  0  0  0  0  0  0  0
    7.1220    0.0360   19.9940 C   0  0  0  0  0  0  0  0  0  0  0  0
    5.9240    0.6040   20.4020 C   0  0  0  0  0  0  0  0  0  0  0  0
    5.0560    1.1350   19.4660 C   0  0  0  0  0  0  0  0  0  0  0  0
    5.4230    1.0870   18.1360 C   0  0  0  0  0  0  0  0  0  0  0  0
    7.3990    0.0480   18.6360 C   0  0  0  0  0  0  0  0  0  0  0  0
    9.1280   -1.1040   23.6090 C   0  0  0  0  0  0  0  0  0  0  0  0
    8.3340   -0.8110   24.7160 C   0  0  0  0  0  0  0  0  0  0  0  0
    7.9780   -1.8120   25.6000 C   0  0  0  0  0  0  0  0  0  0  0  0
    8.3950   -3.1300   25.4070 C   0  0  0  0  0  0  0  0  0  0  0  0
    9.1560   -3.4200   24.2750 C   0  0  0  0  0  0  0  0  0  0  0  0
    9.5210   -2.4260   23.3840 C   0  0  0  0  0  0  0  0  0  0  0  0
    8.0940   -4.1780   26.4120 C   0  0  0  0  0  0  0  0  0  0  0  0
    6.8990   -4.1810   27.1300 C   0  0  0  0  0  0  0  0  0  0  0  0
    6.7270   -5.1190   28.1340 C   0  0  0  0  0  0  0  0  0  0  0  0
    7.7260   -6.0330   28.3920 C   0  0  0  0  0  0  0  0  0  0  0  0
    8.8730   -5.9770   27.6210 C   0  0  0  0  0  0  0  0  0  0  0  0
  2  1  1  0
  4  1  1  0
  6  4  2  0
  8  6  1  0
 10  5  1  0
 10  8  1  0
 11  8  2  0
 11  1  1  0
 12  3  2  0
 12  5  1  0
 13 12  1  0
 14 13  1  0
 15 14  1  0
 16 15  2  0
 17 16  1  0
 17  7  2  0
 18 14  2  0
 18  7  1  0
 19  5  1  0
 20 19  2  0
 21 20  1  0
 22 21  2  0
 23 22  1  0
 24 23  2  0
 24 19  1  0
 25 22  1  0
 25  9  2  0
 26 25  1  0
 27 26  2  0
 28 27  1  0
 29 28  2  0
 29  9  1  0
M  END
