
     RDKit          3D

 16 17  0  0  0  0  0  0  0  0999 V2000
    7.0070   -2.5880   20.8480 N   0  0  0  0  0  0  0  0  0  0  0  0
    7.2710   -2.5500   18.3990 C   0  0  0  0  0  0  0  0  0  0  0  0
    5.9800   -4.1510   19.6100 O   0  0  0  0  0  0  0  0  0  0  0  0
    6.6810   -3.1430   19.6640 C   0  0  0  0  0  0  0  0  0  0  0  0
    6.7440   -3.2430   22.1210 C   0  0  0  0  0  0  0  0  0  0  0  0
    7.7260   -1.3350   21.0540 C   0  0  0  0  0  0  0  0  0  0  0  0
    9.0430   -1.6400   21.7240 C   0  0  0  0  0  0  0  0  0  0  0  0
   10.1530   -2.6880   23.5830 C   0  0  0  0  0  0  0  0  0  0  0  0
   11.1220   -1.5530   23.6240 C   0  0  0  0  0  0  0  0  0  0  0  0
   12.2130   -1.3090   22.7810 C   0  0  0  0  0  0  0  0  0  0  0  0
   12.9030   -0.1310   23.1630 C   0  0  0  0  0  0  0  0  0  0  0  0
   12.2280    0.5880   24.0860 C   0  0  0  0  0  0  0  0  0  0  0  0
    8.0600   -3.5460   22.7960 C   0  0  0  0  0  0  0  0  0  0  0  0
    8.8490   -2.3270   23.0040 N   0  0  0  0  0  0  0  0  0  0  0  0
   10.9950   -0.3250   24.8170 S   0  0  0  0  0  0  0  0  0  0  0  0
    8.9200   -3.2470   18.1620 S   0  0  0  0  0  0  0  0  0  0  0  0
  4  3  2  0
  4  2  1  0
  4  1  1  0
  5  1  1  0
  6  1  1  0
  7  6  1  0
  9  8  1  0
 10  9  2  0
 11 10  1  0
 12 11  2  0
 13  5  1  0
 14  7  1  0
 14 13  1  0
 14  8  1  0
 15 12  1  0
 15  9  1  0
  2 16  1  0
M  END
