
     RDKit          3D

 30 33  0  0  0  0  0  0  0  0999 V2000
    8.6680    1.0170   21.0250 O   0  0  0  0  0  0  0  0  0  0  0  0
    8.5820   -0.1890   21.2530 C   0  0  0  0  0  0  0  0  0  0  0  0
    7.4000   -1.0110   20.7780 C   0  0  0  0  0  0  0  0  0  0  0  0
    6.6250   -0.2470   19.7240 C   0  0  0  0  0  0  0  0  0  0  0  0
    5.5370    0.5900   20.0890 C   0  0  0  0  0  0  0  0  0  0  0  0
    5.1060    0.7680   21.4300 C   0  0  0  0  0  0  0  0  0  0  0  0
    4.0640    1.5980   21.7270 C   0  0  0  0  0  0  0  0  0  0  0  0
    3.4000    2.2820   20.7250 C   0  0  0  0  0  0  0  0  0  0  0  0
    3.7780    2.1490   19.4220 C   0  0  0  0  0  0  0  0  0  0  0  0
    4.8560    1.3040   19.0690 C   0  0  0  0  0  0  0  0  0  0  0  0
    5.3140    1.1370   17.7420 C   0  0  0  0  0  0  0  0  0  0  0  0
    6.3370    0.3620   17.4060 N   0  0  0  0  0  0  0  0  0  0  0  0
    6.9570   -0.3070   18.3860 C   0  0  0  0  0  0  0  0  0  0  0  0
    9.5050   -0.8920   21.9410 N   0  0  0  0  0  0  0  0  0  0  0  0
   10.6760   -0.3990   22.5560 C   0  0  0  0  0  0  0  0  0  0  0  0
   11.7950   -1.2190   22.6640 C   0  0  0  0  0  0  0  0  0  0  0  0
   12.9300   -0.7200   23.2730 C   0  0  2  0  0  0  0  0  0  0  0  0
   14.2770   -1.7850   23.5380 Cl  0  0  0  0  0  0  0  0  0  0  0  0
   13.0000    0.5740   23.7480 C   0  0  0  0  0  0  0  0  0  0  0  0
   10.7160    0.9030   23.0440 C   0  0  0  0  0  0  0  0  0  0  0  0
   11.8760    1.3740   23.6310 C   0  0  1  0  0  0  0  0  0  0  0  0
   11.8490    2.6520   24.1840 O   0  0  0  0  0  0  0  0  0  0  0  0
   12.4890    3.7060   23.5990 C   0  0  0  0  0  0  0  0  0  0  0  0
   13.0750    3.4990   22.3490 C   0  0  0  0  0  0  0  0  0  0  0  0
   13.7360    4.5730   21.7780 C   0  0  0  0  0  0  0  0  0  0  0  0
   13.7880    5.7880   22.4370 C   0  0  0  0  0  0  0  0  0  0  0  0
   12.5170    4.8540   24.2660 N   0  0  0  0  0  0  0  0  0  0  0  0
   13.1500    5.8700   23.6790 C   0  0  0  0  0  0  0  0  0  0  0  0
   13.2050    7.0770   24.2850 O   0  0  0  0  0  0  0  0  0  0  0  0
   12.5770    7.2210   25.5690 C   0  0  0  0  0  0  0  0  0  0  0  0
  2  1  1  0
  3  2  1  0
  4  3  1  0
  5  4  1  0
  6  5  1  0
  7  6  1  0
  8  7  1  0
  9  8  1  0
 10  9  1  0
 10  5  1  0
 11 10  1  0
 12 11  1  0
 13 12  1  0
 13  4  1  0
 14  2  1  0
 15 14  1  0
 16 15  1  0
 17 16  1  0
 17 18  1  1
 19 17  1  0
 20 15  1  0
 21 20  1  0
 21 19  1  0
 21 22  1  1
 23 22  1  0
 24 23  1  0
 25 24  1  0
 26 25  1  0
 27 23  1  0
 28 27  1  0
 28 26  1  0
 29 28  1  0
 30 29  1  0
M  END
$$$$
