
     RDKit          3D

 22 24  0  0  0  0  0  0  0  0999 V2000
    9.0940    1.1560   21.2130 O   0  0  0  0  0  0  0  0  0  0  0  0
    8.8800    0.0380   21.6640 C   0  0  0  0  0  0  0  0  0  0  0  0
    7.9580   -0.9300   20.9290 C   0  0  0  0  0  0  0  0  0  0  0  0
    7.2430   -0.2690   19.8590 N   0  0  0  0  0  0  0  0  0  0  0  0
    6.0750    0.4330   19.9040 C   0  0  0  0  0  0  0  0  0  0  0  0
    5.2600    0.8750   20.9400 C   0  0  0  0  0  0  0  0  0  0  0  0
    4.1890    1.6950   20.6090 C   0  0  0  0  0  0  0  0  0  0  0  0
    3.9350    2.0420   19.2820 C   0  0  0  0  0  0  0  0  0  0  0  0
    4.7450    1.5830   18.2550 C   0  0  0  0  0  0  0  0  0  0  0  0
    5.8330    0.7750   18.5780 C   0  0  0  0  0  0  0  0  0  0  0  0
    6.8530    0.2740   17.8020 N   0  0  0  0  0  0  0  0  0  0  0  0
    7.6930   -0.3440   18.5810 N   0  0  0  0  0  0  0  0  0  0  0  0
    9.4250   -0.3770   22.8290 N   0  0  0  0  0  0  0  0  0  0  0  0
    8.9710   -1.5330   23.6000 C   0  0  0  0  0  0  0  0  0  0  0  0
   10.5900    0.3130   23.3720 C   0  0  0  0  0  0  0  0  0  0  0  0
   11.8030   -0.5850   23.3850 C   0  0  0  0  0  0  0  0  0  0  0  0
   12.2720   -1.1180   24.5850 C   0  0  0  0  0  0  0  0  0  0  0  0
   13.3050   -2.0370   24.5670 C   0  0  0  0  0  0  0  0  0  0  0  0
   13.8280   -2.7500   26.0770 Cl  0  0  0  0  0  0  0  0  0  0  0  0
   13.9120   -2.4240   23.3870 C   0  0  0  0  0  0  0  0  0  0  0  0
   13.4600   -1.8750   22.1920 C   0  0  0  0  0  0  0  0  0  0  0  0
   12.4130   -0.9650   22.1950 C   0  0  0  0  0  0  0  0  0  0  0  0
  2  1  2  0
  3  2  1  0
  4  3  1  0
  5  4  1  0
  6  5  2  0
  7  6  1  0
  8  7  2  0
  9  8  1  0
 10  9  2  0
 10  5  1  0
 11 10  1  0
 12 11  2  0
 12  4  1  0
 13  2  1  0
 14 13  1  0
 15 13  1  0
 16 15  1  0
 17 16  2  0
 18 17  1  0
 19 18  1  0
 20 18  2  0
 21 20  1  0
 22 21  2  0
 22 16  1  0
M  END
