
     RDKit          3D

 25 27  0  0  0  0  0  0  0  0999 V2000
    5.1760    1.0800   17.7330 Br  0  0  0  0  0  0  0  0  0  0  0  0
    5.7450   -0.0220   19.1620 C   0  0  0  0  0  0  0  0  0  0  0  0
    6.0580   -1.3340   18.9040 C   0  0  0  0  0  0  0  0  0  0  0  0
    6.4720   -2.1460   19.9510 C   0  0  1  0  0  0  0  0  0  0  0  0
    6.9400   -3.5690   19.9480 C   0  0  0  0  0  0  0  0  0  0  0  0
    5.8910   -4.4380   19.5690 O   0  0  0  0  0  0  0  0  0  0  0  0
    7.1950   -3.8210   21.4260 C   0  0  0  0  0  0  0  0  0  0  0  0
    7.4510   -4.8900   21.9480 O   0  0  0  0  0  0  0  0  0  0  0  0
    5.8230    0.5080   20.4310 C   0  0  0  0  0  0  0  0  0  0  0  0
    6.2140   -0.3000   21.4960 C   0  0  1  0  0  0  0  0  0  0  0  0
    6.1960    0.2740   22.8920 C   0  0  0  0  0  0  0  0  0  0  0  0
    6.5530   -1.6340   21.2270 C   0  0  2  0  0  0  0  0  0  0  0  0
    7.1110   -2.6140   22.0730 N   0  0  0  0  0  0  0  0  0  0  0  0
    7.5750   -2.4090   23.4410 C   0  0  0  0  0  0  0  0  0  0  0  0
    8.9410   -1.7690   23.5140 C   0  0  2  0  0  0  0  0  0  0  0  0
    9.3490   -1.1360   24.6820 C   0  0  0  0  0  0  0  0  0  0  0  0
   10.5670   -0.4840   24.7420 C   0  0  0  0  0  0  0  0  0  0  0  0
   11.0190    0.2230   25.8230 O   0  0  0  0  0  0  0  0  0  0  0  0
   10.2100    0.2240   27.0070 C   0  0  0  0  0  0  0  0  0  0  0  0
    9.7860   -1.7510   22.4110 C   0  0  0  0  0  0  0  0  0  0  0  0
   11.0180   -1.1260   22.4550 C   0  0  0  0  0  0  0  0  0  0  0  0
   11.4180   -0.4880   23.6230 C   0  0  0  0  0  0  0  0  0  0  0  0
   12.6270    0.1270   23.8070 O   0  0  0  0  0  0  0  0  0  0  0  0
   13.5690    0.0920   22.7360 C   0  0  0  0  0  0  0  0  0  0  0  0
    8.4470   -3.6080   18.8110 S   0  0  0  0  0  0  0  0  0  0  0  0
  2  1  1  0
  3  2  1  0
  4  3  1  6
  5  4  1  0
  5  6  1  6
  7  5  1  0
  8  7  1  0
  9  2  1  0
 10  9  1  0
 10 11  1  1
 12 10  1  0
 12  4  1  0
 12 13  1  6
 13  7  1  0
 14 13  1  0
 15 14  1  6
 16 15  1  0
 17 16  1  0
 18 17  1  0
 19 18  1  0
 20 15  1  0
 21 20  1  0
 22 17  1  0
 22 21  1  0
 23 22  1  0
 24 23  1  0
  5 25  1  0
M  END
$$$$
