
     RDKit          3D

 22 23  0  0  0  0  0  0  0  0999 V2000
    6.7450   -2.1880   20.6590 N   0  0  0  0  0  0  0  0  0  0  0  0
    5.7590   -5.7020   25.2450 C   0  0  0  0  0  0  0  0  0  0  0  0
    5.3130   -3.2930   19.3570 O   0  0  0  0  0  0  0  0  0  0  0  0
   13.9730   -1.0600   21.4700 Cl  0  0  0  0  0  0  0  0  0  0  0  0
    6.0210   -5.0490   23.8990 C   0  0  0  0  0  0  0  0  0  0  0  0
    8.3800   -2.0740   22.9680 N   0  0  0  0  0  0  0  0  0  0  0  0
    6.4820   -6.0960   22.8770 C   0  0  0  0  0  0  0  0  0  0  0  0
    7.0070   -3.8850   24.0500 C   0  0  0  0  0  0  0  0  0  0  0  0
    7.4290   -3.1950   22.7520 C   0  0  1  0  0  0  0  0  0  0  0  0
    6.2490   -2.6940   21.9360 C   0  0  0  0  0  0  0  0  0  0  0  0
    7.6770   -1.0690   20.8070 C   0  0  0  0  0  0  0  0  0  0  0  0
    8.8360   -1.4850   21.6910 C   0  0  0  0  0  0  0  0  0  0  0  0
    9.5320   -2.4510   23.8040 C   0  0  0  0  0  0  0  0  0  0  0  0
   10.6960   -1.4910   23.7120 C   0  0  0  0  0  0  0  0  0  0  0  0
   10.7640   -0.3730   24.5320 C   0  0  0  0  0  0  0  0  0  0  0  0
   11.7970    0.5400   24.3990 C   0  0  0  0  0  0  0  0  0  0  0  0
   12.7840    0.3480   23.4440 C   0  0  0  0  0  0  0  0  0  0  0  0
   12.7200   -0.7740   22.6470 C   0  0  0  0  0  0  0  0  0  0  0  0
   11.7010   -1.6960   22.7710 C   0  0  0  0  0  0  0  0  0  0  0  0
    6.3880   -2.7620   19.4950 C   0  0  1  0  0  0  0  0  0  0  0  0
    7.3840   -2.6230   18.3670 C   0  0  0  0  0  0  0  0  0  0  0  0
    8.8530   -3.3560   18.4300 S   0  0  0  0  0  0  0  0  0  0  0  0
  5  2  1  0
  7  5  1  0
  8  5  1  0
  9  8  1  1
  9  6  1  0
 10  1  1  0
 10  9  1  0
 11  1  1  0
 12 11  1  0
 12  6  1  0
 13  6  1  0
 14 13  1  0
 15 14  1  0
 16 15  1  0
 17 16  1  0
 18  4  1  0
 18 17  1  0
 19 14  1  0
 19 18  1  0
 20  3  1  6
 20  1  1  0
 20 21  1  0
 21 22  1  0
M  END
