
     RDKit          3D

 20 21  0  0  0  0  0  0  0  0999 V2000
    3.6650    2.3300   19.1360 N   0  0  0  0  0  0  0  0  0  0  0  0
    4.9290    1.1710   21.5430 C   0  0  0  0  0  0  0  0  0  0  0  0
    9.0210    0.9740   21.0880 O   0  0  0  0  0  0  0  0  0  0  0  0
    5.4250    0.9300   20.1360 C   0  0  0  0  0  0  0  0  0  0  0  0
    6.4530    0.5280   17.5280 N   0  0  0  0  0  0  0  0  0  0  0  0
    4.7910    1.5010   19.0310 C   0  0  0  0  0  0  0  0  0  0  0  0
    7.2610   -0.4640   20.9590 N   0  0  0  0  0  0  0  0  0  0  0  0
    5.3500    1.2560   17.7380 C   0  0  0  0  0  0  0  0  0  0  0  0
   14.2560   -1.9330   20.4900 N   0  0  0  0  0  0  0  0  0  0  0  0
    7.0490   -0.0090   18.5930 C   0  0  0  0  0  0  0  0  0  0  0  0
    6.5710    0.1530   19.8870 C   0  0  0  0  0  0  0  0  0  0  0  0
    8.4080   -0.0050   21.5020 C   0  0  0  0  0  0  0  0  0  0  0  0
    8.8680   -0.7720   22.7240 C   0  0  0  0  0  0  0  0  0  0  0  0
   10.3480   -0.5760   22.9430 C   0  0  0  0  0  0  0  0  0  0  0  0
   10.8190    0.2130   23.9850 C   0  0  0  0  0  0  0  0  0  0  0  0
   12.1760    0.4530   24.1380 C   0  0  0  0  0  0  0  0  0  0  0  0
   13.0810   -0.0860   23.2390 C   0  0  0  0  0  0  0  0  0  0  0  0
   12.6240   -0.9040   22.2090 C   0  0  0  0  0  0  0  0  0  0  0  0
   13.5520   -1.4740   21.2620 C   0  0  0  0  0  0  0  0  0  0  0  0
   11.2610   -1.1590   22.0720 C   0  0  0  0  0  0  0  0  0  0  0  0
  4  2  1  0
  6  4  2  0
  6  1  1  0
  8  6  1  0
  8  5  2  0
 10  5  1  0
 11  4  1  0
 11 10  2  0
 11  7  1  0
 12  7  1  0
 12  3  2  0
 13 12  1  0
 14 13  1  0
 15 14  2  0
 16 15  1  0
 17 16  2  0
 18 17  1  0
 19  9  3  0
 19 18  1  0
 20 14  1  0
 20 18  2  0
M  END
