
     RDKit          3D

 17 18  0  0  0  0  0  0  0  0999 V2000
   24.2940  -22.1870   18.3140 O   0  0  0  0  0  0  0  0  0  0  0  0
   23.6170  -21.9420   19.2910 C   0  0  0  0  0  0  0  0  0  0  0  0
   23.8500  -20.8780   20.1360 O   0  0  0  0  0  0  0  0  0  0  0  0
   24.9510  -20.0500   19.8590 C   0  0  0  0  0  0  0  0  0  0  0  0
   22.5170  -22.6450   19.7120 N   0  0  0  0  0  0  0  0  0  0  0  0
   22.0660  -23.7740   19.0550 C   0  0  0  0  0  0  0  0  0  0  0  0
   21.5660  -23.8250   17.7460 C   0  0  1  0  0  0  0  0  0  0  0  0
   21.1440  -25.1020   17.3380 N   0  0  0  0  0  0  0  0  0  0  0  0
   21.3190  -25.9580   18.3140 C   0  0  0  0  0  0  0  0  0  0  0  0
   20.9280  -27.3790   18.2190 C   0  0  0  0  0  0  0  0  0  0  0  0
   22.0140  -25.3190   19.7900 S   0  0  0  0  0  0  0  0  0  0  0  0
   21.3760  -22.7250   16.7940 C   0  0  1  0  0  0  0  0  0  0  0  0
   21.6760  -22.9160   15.4370 C   0  0  0  0  0  0  0  0  0  0  0  0
   21.4100  -21.8910   14.5210 C   0  0  0  0  0  0  0  0  0  0  0  0
   20.8540  -20.6790   14.9550 C   0  0  0  0  0  0  0  0  0  0  0  0
   20.5670  -20.4900   16.3080 C   0  0  0  0  0  0  0  0  0  0  0  0
   20.8300  -21.5110   17.2280 C   0  0  0  0  0  0  0  0  0  0  0  0
  2  1  1  0
  3  2  1  0
  4  3  1  0
  5  2  1  0
  6  5  1  0
  7  6  1  0
  7  8  1  1
  9  8  1  0
 10  9  1  0
 11  9  1  0
 11  6  1  0
 12  7  1  0
 12 13  1  6
 14 13  1  0
 15 14  1  0
 16 15  1  0
 17 12  1  0
 17 16  1  0
M  END
$$$$
