
     RDKit          3D

 30 33  0  0  0  0  0  0  0  0999 V2000
   12.8450    6.4890   21.9090 O   0  0  0  0  0  0  0  0  0  0  0  0
   12.8060    5.3280   22.2990 C   0  0  0  0  0  0  0  0  0  0  0  0
   12.1610    4.0390   21.8140 C   0  0  0  0  0  0  0  0  0  0  0  0
   13.3900    4.7110   23.3420 N   0  0  0  0  0  0  0  0  0  0  0  0
   13.1260    3.3530   22.7890 C   0  0  1  0  0  0  0  0  0  0  0  0
   12.3980    2.5020   23.7010 O   0  0  0  0  0  0  0  0  0  0  0  0
   12.2370    1.2060   23.2620 C   0  0  0  0  0  0  0  0  0  0  0  0
   13.3190    0.4070   22.9260 C   0  0  0  0  0  0  0  0  0  0  0  0
   13.0680   -0.8510   22.4150 C   0  0  2  0  0  0  0  0  0  0  0  0
   14.3800   -1.7370   21.6900 Cl  0  0  0  0  0  0  0  0  0  0  0  0
   10.9350    0.7480   23.1330 C   0  0  0  0  0  0  0  0  0  0  0  0
   10.7260   -0.5460   22.6830 C   0  0  0  0  0  0  0  0  0  0  0  0
   11.7880   -1.3620   22.3220 C   0  0  0  0  0  0  0  0  0  0  0  0
    9.3970   -0.8890   22.7010 O   0  0  0  0  0  0  0  0  0  0  0  0
    9.0210   -2.2240   22.3310 C   0  0  0  0  0  0  0  0  0  0  0  0
    7.5220   -2.2560   22.2580 C   0  0  0  0  0  0  0  0  0  0  0  0
    7.0060   -1.2920   21.2950 N   0  0  0  0  0  0  0  0  0  0  0  0
    5.8980   -1.5160   20.5880 C   0  0  0  0  0  0  0  0  0  0  0  0
    5.2880   -2.5850   20.6330 O   0  0  0  0  0  0  0  0  0  0  0  0
    5.4140   -0.3800   19.7640 C   0  0  0  0  0  0  0  0  0  0  0  0
    4.4350    0.5800   20.2760 C   0  0  0  0  0  0  0  0  0  0  0  0
    3.9400    0.5460   21.5800 C   0  0  0  0  0  0  0  0  0  0  0  0
    3.0200    1.4950   21.9980 C   0  0  0  0  0  0  0  0  0  0  0  0
    2.5870    2.4840   21.1300 C   0  0  0  0  0  0  0  0  0  0  0  0
    3.0800    2.5500   19.8360 C   0  0  0  0  0  0  0  0  0  0  0  0
    4.0120    1.6060   19.4050 C   0  0  0  0  0  0  0  0  0  0  0  0
    4.5720    1.6950   18.1340 N   0  0  0  0  0  0  0  0  0  0  0  0
    5.5300    0.8450   17.6450 C   0  0  1  0  0  0  0  0  0  0  0  0
    6.0650    1.0740   16.5530 O   0  0  0  0  0  0  0  0  0  0  0  0
    5.9130   -0.2270   18.5090 C   0  0  0  0  0  0  0  0  0  0  0  0
  2  1  1  0
  3  2  1  0
  4  2  1  0
  5  4  1  0
  5  3  1  0
  5  6  1  1
  7  6  1  0
  8  7  1  0
  9  8  1  0
  9 10  1  6
 11  7  1  0
 12 11  1  0
 13 12  1  0
 13  9  1  0
 14 12  1  0
 15 14  1  0
 16 15  1  0
 17 16  1  0
 18 17  1  0
 19 18  1  0
 20 18  1  0
 21 20  1  0
 22 21  1  0
 23 22  1  0
 24 23  1  0
 25 24  1  0
 26 25  1  0
 26 21  1  0
 27 26  1  0
 28 27  1  0
 28 29  1  1
 30 20  1  0
 30 28  1  0
M  END
$$$$
