
     RDKit          3D

 23 25  0  0  0  0  0  0  0  0999 V2000
    6.3460    0.6950   17.3280 N   0  0  0  0  0  0  0  0  0  0  0  0
    4.6650    1.1770   21.2680 C   0  0  0  0  0  0  0  0  0  0  0  0
    8.7170    0.7530   20.9700 O   0  0  0  0  0  0  0  0  0  0  0  0
   13.6830   -1.9130   21.1590 Cl  0  0  0  0  0  0  0  0  0  0  0  0
    5.2110    0.9380   19.8830 C   0  0  1  0  0  0  0  0  0  0  0  0
    6.9030   -0.6050   20.7240 N   0  0  0  0  0  0  0  0  0  0  0  0
    7.4310    0.7480   24.1580 O   0  0  0  0  0  0  0  0  0  0  0  0
    4.6970    1.6280   18.7920 C   0  0  0  0  0  0  0  0  0  0  0  0
    9.3090   -0.3300   23.3750 N   0  0  0  0  0  0  0  0  0  0  0  0
   10.7850    0.9290   25.3560 O   0  0  0  0  0  0  0  0  0  0  0  0
    5.2930    1.4930   17.5570 C   0  0  0  0  0  0  0  0  0  0  0  0
    6.8280   -0.0020   18.3620 C   0  0  0  0  0  0  0  0  0  0  0  0
    6.3020    0.0870   19.6500 C   0  0  2  0  0  0  0  0  0  0  0  0
    8.0690   -0.2360   21.2960 C   0  0  0  0  0  0  0  0  0  0  0  0
    8.5100   -1.1200   22.4460 C   0  0  0  0  0  0  0  0  0  0  0  0
    8.6480    0.5920   24.1600 C   0  0  0  0  0  0  0  0  0  0  0  0
    9.4870    1.4630   25.0640 C   0  0  0  0  0  0  0  0  0  0  0  0
   11.4160    0.3220   24.3000 C   0  0  0  0  0  0  0  0  0  0  0  0
   12.7910    0.4250   24.2460 C   0  0  0  0  0  0  0  0  0  0  0  0
   13.4770   -0.2240   23.2410 C   0  0  0  0  0  0  0  0  0  0  0  0
   12.7870   -1.0070   22.3460 C   0  0  0  0  0  0  0  0  0  0  0  0
   11.4110   -1.1210   22.3810 C   0  0  0  0  0  0  0  0  0  0  0  0
   10.7120   -0.4090   23.3520 C   0  0  2  0  0  0  0  0  0  0  0  0
  5  2  1  1
  8  5  1  0
 11  8  1  0
 11  1  1  0
 12  1  1  0
 13  5  1  0
 13 12  1  0
 13  6  1  1
 14  6  1  0
 14  3  1  0
 15 14  1  0
 15  9  1  0
 16  9  1  0
 16  7  1  0
 17 16  1  0
 17 10  1  0
 18 10  1  0
 19 18  1  0
 20 19  1  0
 21  4  1  0
 21 20  1  0
 22 21  1  0
 23  9  1  0
 23 22  1  6
 23 18  1  0
M  END
$$$$
