
     RDKit          3D

 13 14  0  0  0  0  0  0  0  0999 V2000
    4.6240    8.1170   10.7910 N   0  0  0  0  0  0  0  0  0  0  0  0
    1.9920    9.9840    9.6320 C   0  0  0  0  0  0  0  0  0  0  0  0
    1.6510    9.2820   10.7870 O   0  0  0  0  0  0  0  0  0  0  0  0
    3.3550    9.4830    9.1230 C   0  0  2  0  0  0  0  0  0  0  0  0
    4.3310    9.3680   10.2770 C   0  0  0  0  0  0  0  0  0  0  0  0
    5.5310    8.0640   11.8050 C   0  0  0  0  0  0  0  0  0  0  0  0
    6.1620    9.2010   12.3400 C   0  0  0  0  0  0  0  0  0  0  0  0
    5.8400   10.4500   11.8210 C   0  0  0  0  0  0  0  0  0  0  0  0
    4.9220   10.5470   10.7910 C   0  0  0  0  0  0  0  0  0  0  0  0
    3.8890   10.4030    8.0180 C   0  0  0  0  0  0  0  0  0  0  0  0
    3.3910    9.8290    6.6900 C   0  0  0  0  0  0  0  0  0  0  0  0
    2.7000    8.5120    7.0080 C   0  0  0  0  0  0  0  0  0  0  0  0
    3.1760    8.1310    8.4090 C   0  0  0  0  0  0  0  0  0  0  0  0
  3  2  1  0
  4  2  1  1
  5  4  1  0
  5  1  2  0
  6  1  1  0
  7  6  2  0
  8  7  1  0
  9  5  1  0
  9  8  2  0
 10  4  1  0
 11 10  1  0
 12 11  1  0
 13 12  1  0
 13  4  1  0
M  END
