
     RDKit          3D

 12 13  0  0  0  0  0  0  0  0999 V2000
    7.7810   -2.3770   18.5200 C   0  0  0  0  0  0  0  0  0  0  0  0
    6.7200   -1.6570   19.3310 C   0  0  1  0  0  0  0  0  0  0  0  0
    7.2020   -1.4200   20.7400 C   0  0  0  0  0  0  0  0  0  0  0  0
    6.1210   -0.7870   21.6490 C   0  0  0  0  0  0  0  0  0  0  0  0
    5.2390    0.3430   20.9420 C   0  0  0  0  0  0  0  0  0  0  0  0
    4.3790    1.1420   21.7150 C   0  0  0  0  0  0  0  0  0  0  0  0
    3.6010    2.1340   21.1000 C   0  0  0  0  0  0  0  0  0  0  0  0
    3.6710    2.3410   19.7020 C   0  0  0  0  0  0  0  0  0  0  0  0
    4.5220    1.5510   18.9210 C   0  0  0  0  0  0  0  0  0  0  0  0
    5.3000    0.5590   19.5490 C   0  0  0  0  0  0  0  0  0  0  0  0
    6.2910   -0.3890   18.7060 C   0  0  0  0  0  0  0  0  0  0  0  0
    6.6760   -0.0810   17.6230 O   0  0  0  0  0  0  0  0  0  0  0  0
  2  1  1  6
  3  2  1  0
  4  3  1  0
  5  4  1  0
  6  5  2  0
  7  6  1  0
  8  7  2  0
  9  8  1  0
 10  9  2  0
 10  5  1  0
 11 10  1  0
 11  2  1  0
 12 11  2  0
M  END
$$$$
