
     RDKit          3D

 15 15  0  0  0  0  0  0  0  0999 V2000
    5.5500  -30.1100   10.7230 C   0  0  0  0  0  0  0  0  0  0  0  0
    5.0160  -29.9100    9.3040 C   0  0  0  0  0  0  0  0  0  0  0  0
    5.3260  -27.3840    9.3550 C   0  0  0  0  0  0  0  0  0  0  0  0
    4.3820  -26.1960    9.3200 C   0  0  0  0  0  0  0  0  0  0  0  0
    3.9370  -25.6230   10.5020 C   0  0  0  0  0  0  0  0  0  0  0  0
    3.1030  -24.5190   10.4520 C   0  0  0  0  0  0  0  0  0  0  0  0
    2.7300  -23.9910    9.2270 C   0  0  0  0  0  0  0  0  0  0  0  0
    3.1860  -24.5590    8.0600 C   0  0  0  0  0  0  0  0  0  0  0  0
    4.0130  -25.6560    8.1120 C   0  0  0  0  0  0  0  0  0  0  0  0
    4.8940  -28.5970    8.6740 N   0  0  0  0  0  0  0  0  0  0  0  0
    1.9060  -21.7100    7.6490 N   0  0  0  0  0  0  0  0  0  0  0  0
    4.6640  -30.8680    8.7040 O   0  0  0  0  0  0  0  0  0  0  0  0
    1.8220  -21.6370   10.2300 O   0  0  0  0  0  0  0  0  0  0  0  0
    0.2320  -22.9350    9.2450 O   0  0  0  0  0  0  0  0  0  0  0  0
    1.6390  -22.5500    9.1060 S   0  0  2  0  0  0  0  0  0  0  0  0
  2  1  1  0
  4  3  1  0
  5  4  2  0
  6  5  1  0
  7  6  2  0
  8  7  1  0
  9  8  2  0
  9  4  1  0
 10  3  1  0
 10  2  1  0
 12  2  2  0
 15 14  2  0
 15  7  1  0
 15 13  2  0
 15 11  1  6
M  END
