
     RDKit          3D

 18 19  0  0  0  0  0  0  0  0999 V2000
   13.2790   -1.1100   22.5510 C   0  0  0  0  0  0  0  0  0  0  0  0
    7.3460    2.6880   29.3200 C   0  0  0  0  0  0  0  0  0  0  0  0
    6.1340    2.5890   29.9750 C   0  0  0  0  0  0  0  0  0  0  0  0
    5.6280    3.7020   30.8450 C   0  0  0  0  0  0  0  0  0  0  0  0
    5.4040    1.4270   29.8130 C   0  0  0  0  0  0  0  0  0  0  0  0
    5.8590    0.3840   29.0200 C   0  0  0  0  0  0  0  0  0  0  0  0
   11.7750   -0.1770   24.1860 C   0  0  0  0  0  0  0  0  0  0  0  0
   11.0660   -0.4520   25.4900 C   0  0  0  0  0  0  0  0  0  0  0  0
   10.7250   -2.7630   24.7710 C   0  0  0  0  0  0  0  0  0  0  0  0
   11.4990   -2.4350   23.5120 C   0  0  0  0  0  0  0  0  0  0  0  0
    8.8410   -1.4930   25.7840 C   0  0  0  0  0  0  0  0  0  0  0  0
    8.4290   -0.2470   26.5570 C   0  0  0  0  0  0  0  0  0  0  0  0
    7.0740    0.5030   28.3640 C   0  0  0  0  0  0  0  0  0  0  0  0
    7.8220    1.6660   28.5150 C   0  0  0  0  0  0  0  0  0  0  0  0
   12.4820   -1.3770   23.7480 N   0  0  0  0  0  0  0  0  0  0  0  0
   10.1200   -1.5640   25.3570 N   0  0  0  0  0  0  0  0  0  0  0  0
    8.0090   -2.3770   25.5740 O   0  0  0  0  0  0  0  0  0  0  0  0
    7.5030   -0.5450   27.5910 O   0  0  0  0  0  0  0  0  0  0  0  0
  3  2  1  0
  4  3  1  0
  5  3  1  0
  6  5  1  0
  8  7  1  0
 10  9  1  0
 12 11  1  0
 13  6  1  0
 14 13  1  0
 14  2  1  0
 15 10  1  0
 15  7  1  0
 15  1  1  0
 16 11  1  0
 16  9  1  0
 16  8  1  0
 17 11  1  0
 18 12  1  0
 18 13  1  0
M  END
$$$$
