
     RDKit          3D

 41 45  0  0  0  0  0  0  0  0999 V2000
    6.2620   -3.8580   19.6890 O   0  0  0  0  0  0  0  0  0  0  0  0
    7.4880   -3.2910   20.0320 C   0  0  2  0  0  0  0  0  0  0  0  0
    8.0110   -4.0000   21.2870 C   0  0  0  0  0  0  0  0  0  0  0  0
    7.2350   -4.0530   22.4180 N   0  0  0  0  0  0  0  0  0  0  0  0
    7.9670   -4.7730   23.4330 C   0  0  0  0  0  0  0  0  0  0  0  0
    7.4300   -4.9950   24.7230 C   0  0  0  0  0  0  0  0  0  0  0  0
    8.1830   -5.6880   25.6600 C   0  0  0  0  0  0  0  0  0  0  0  0
    9.4640   -6.1430   25.3300 C   0  0  0  0  0  0  0  0  0  0  0  0
    9.9930   -5.9190   24.0560 C   0  0  0  0  0  0  0  0  0  0  0  0
    9.2400   -5.2180   23.0970 C   0  0  0  0  0  0  0  0  0  0  0  0
    9.5170   -4.7430   21.5110 S   0  0  0  0  0  0  0  0  0  0  0  0
    7.3830   -1.7950   20.3490 C   0  0  2  0  0  0  0  0  0  0  0  0
    6.8870   -1.0240   19.1460 C   0  0  0  0  0  0  0  0  0  0  0  0
    6.4090    0.4190   19.5510 C   0  0  2  0  0  0  0  0  0  0  0  0
    5.4180    0.4720   20.3550 C   0  0  0  0  0  0  0  0  0  0  0  0
    4.5810    1.9060   19.9580 C   0  0  0  0  0  0  0  0  0  0  0  0
    4.7490    2.1050   18.6470 N   0  0  0  0  0  0  0  0  0  0  0  0
    5.9420    1.1880   18.2110 C   0  0  0  0  0  0  0  0  0  0  0  0
    6.4020    1.0900   17.1310 O   0  0  0  0  0  0  0  0  0  0  0  0
    8.7110   -1.3530   20.6930 N   0  0  0  0  0  0  0  0  0  0  0  0
    8.9970   -0.7690   21.9660 C   0  0  0  0  0  0  0  0  0  0  0  0
   10.4320   -0.3660   22.2530 C   0  0  2  0  0  0  0  0  0  0  0  0
   11.1300   -1.4740   23.0580 C   0  0  0  0  0  0  0  0  0  0  0  0
   12.6010   -1.2040   23.3130 C   0  0  1  0  0  0  0  0  0  0  0  0
   13.1840   -2.1960   24.3140 C   0  0  0  0  0  0  0  0  0  0  0  0
   13.3990   -1.2840   22.0070 C   0  0  0  0  0  0  0  0  0  0  0  0
   10.4800    0.8800   22.9730 N   0  0  0  0  0  0  0  0  0  0  0  0
   10.1540    2.0860   22.2770 C   0  0  0  0  0  0  0  0  0  0  0  0
   10.2120    3.4020   23.0100 C   0  0  0  0  0  0  0  0  0  0  0  0
   10.5240    3.5600   24.3580 C   0  0  0  0  0  0  0  0  0  0  0  0
   10.4710    4.9480   24.6270 C   0  0  0  0  0  0  0  0  0  0  0  0
   10.6690    5.7100   25.8100 C   0  0  0  0  0  0  0  0  0  0  0  0
   11.0230    5.0110   26.9720 O   0  0  0  0  0  0  0  0  0  0  0  0
   11.2650    5.7900   28.1120 C   0  0  0  0  0  0  0  0  0  0  0  0
   10.5290    7.0870   25.7560 C   0  0  0  0  0  0  0  0  0  0  0  0
   10.1910    7.7170   24.5570 C   0  0  0  0  0  0  0  0  0  0  0  0
    9.9830    6.9670   23.3970 C   0  0  0  0  0  0  0  0  0  0  0  0
   10.1260    5.5630   23.4520 C   0  0  0  0  0  0  0  0  0  0  0  0
    9.9830    4.6030   22.4860 N   0  0  0  0  0  0  0  0  0  0  0  0
    9.7990    2.0280   21.1320 O   0  0  0  0  0  0  0  0  0  0  0  0
    8.1110   -0.6010   22.7470 O   0  0  0  0  0  0  0  0  0  0  0  0
  2  1  1  1
  3  2  1  0
  4  3  2  0
  5  4  1  0
  6  5  2  0
  7  6  1  0
  8  7  2  0
  9  8  1  0
 10  9  2  0
 10  5  1  0
 11  3  1  0
 11 10  1  0
 12  2  1  0
 12 13  1  6
 14 13  1  6
 15 14  1  0
 16 15  1  0
 17 16  1  0
 18 17  1  0
 18 14  1  0
 19 18  2  0
 20 12  1  0
 21 20  1  0
 22 21  1  0
 22 23  1  1
 24 23  1  0
 24 25  1  1
 26 24  1  0
 27 22  1  0
 28 27  1  0
 29 28  1  0
 30 29  2  0
 31 30  1  0
 32 31  2  0
 33 32  1  0
 34 33  1  0
 35 32  1  0
 36 35  2  0
 37 36  1  0
 38 31  1  0
 38 37  2  0
 39 29  1  0
 39 38  1  0
 40 28  2  0
 41 21  2  0
M  END
