
     RDKit          3D

 25 27  0  0  0  0  0  0  0  0999 V2000
    9.1610   -0.6990   22.4800 N   0  0  0  0  0  0  0  0  0  0  0  0
   12.8310   -0.7470   22.1740 C   0  0  0  0  0  0  0  0  0  0  0  0
    9.1300    0.8880   20.8310 O   0  0  0  0  0  0  0  0  0  0  0  0
   14.0480   -1.4600   21.1490 Cl  0  0  0  0  0  0  0  0  0  0  0  0
   13.2070    0.1890   23.1120 C   0  0  0  0  0  0  0  0  0  0  0  0
    7.3200   -0.4780   21.0220 N   0  0  0  0  0  0  0  0  0  0  0  0
   12.2340    0.7430   23.9290 C   0  0  0  0  0  0  0  0  0  0  0  0
    6.4910    0.6640   17.6280 N   0  0  0  0  0  0  0  0  0  0  0  0
   10.9020    0.3870   23.7820 C   0  0  0  0  0  0  0  0  0  0  0  0
   10.5380   -0.5220   22.7970 C   0  0  2  0  0  0  0  0  0  0  0  0
   11.5140   -1.1250   22.0060 C   0  0  0  0  0  0  0  0  0  0  0  0
    8.3400   -1.4690   23.4310 C   0  0  0  0  0  0  0  0  0  0  0  0
    8.8020   -2.9120   23.5780 C   0  0  0  0  0  0  0  0  0  0  0  0
    8.6550   -3.4570   25.0090 C   0  0  2  0  0  0  0  0  0  0  0  0
    9.1410   -4.9070   25.1090 C   0  0  0  0  0  0  0  0  0  0  0  0
    8.9860   -5.4850   26.5190 C   0  0  0  0  0  0  0  0  0  0  0  0
    7.5470   -5.3770   27.0120 C   0  0  0  0  0  0  0  0  0  0  0  0
    7.0520   -3.9370   26.9300 C   0  0  0  0  0  0  0  0  0  0  0  0
    7.2110   -3.3670   25.5190 C   0  0  0  0  0  0  0  0  0  0  0  0
    8.5530   -0.0390   21.3850 C   0  0  0  0  0  0  0  0  0  0  0  0
    6.5730    0.0870   19.9640 C   0  0  1  0  0  0  0  0  0  0  0  0
    5.3970    0.7930   20.1870 C   0  0  0  0  0  0  0  0  0  0  0  0
    4.7830    1.4360   19.1290 C   0  0  0  0  0  0  0  0  0  0  0  0
    5.3650    1.3490   17.8730 C   0  0  0  0  0  0  0  0  0  0  0  0
    7.0680    0.0410   18.6580 C   0  0  0  0  0  0  0  0  0  0  0  0
  4  2  1  0
  5  2  1  0
  7  5  1  0
  9  7  1  0
 10  1  1  6
 10  9  1  0
 11 10  1  0
 11  2  1  0
 12  1  1  0
 13 12  1  0
 14 13  1  6
 15 14  1  0
 16 15  1  0
 17 16  1  0
 18 17  1  0
 19 18  1  0
 19 14  1  0
 20  6  1  0
 20  3  1  0
 20  1  1  0
 21  6  1  1
 22 21  1  0
 23 22  1  0
 24 23  1  0
 24  8  1  0
 25 21  1  0
 25  8  1  0
M  END
$$$$
