
     RDKit          3D

 19 20  0  0  0  0  0  0  0  0999 V2000
    0.7860   -1.3370   26.2370 Cl  0  0  0  0  0  0  0  0  0  0  0  0
    2.0740   -2.5040   26.1730 C   0  0  0  0  0  0  0  0  0  0  0  0
    3.3610   -2.1020   26.4530 C   0  0  0  0  0  0  0  0  0  0  0  0
    4.3820   -3.0320   26.4020 C   0  0  0  0  0  0  0  0  0  0  0  0
    1.7810   -3.8070   25.8470 C   0  0  0  0  0  0  0  0  0  0  0  0
    2.8040   -4.7340   25.7960 C   0  0  0  0  0  0  0  0  0  0  0  0
    4.0950   -4.3430   26.0840 C   0  0  0  0  0  0  0  0  0  0  0  0
    5.3990   -5.5260   25.9970 S   0  0  1  0  0  0  0  0  0  0  0  0
    6.4680   -5.1010   26.8440 O   0  0  0  0  0  0  0  0  0  0  0  0
    4.8270   -6.8250   26.1560 O   0  0  0  0  0  0  0  0  0  0  0  0
    5.9750   -5.4640   24.4680 N   0  0  0  0  0  0  0  0  0  0  0  0
    5.0390   -5.7880   23.3800 C   0  0  0  0  0  0  0  0  0  0  0  0
    5.8430   -6.1620   22.1630 C   0  0  0  0  0  0  0  0  0  0  0  0
    6.8090   -4.3080   24.1180 C   0  0  0  0  0  0  0  0  0  0  0  0
    7.6390   -4.6920   22.9280 C   0  0  0  0  0  0  0  0  0  0  0  0
    6.7730   -5.0870   21.8150 N   0  0  0  0  0  0  0  0  0  0  0  0
    6.8280   -4.5090   20.5990 C   0  0  0  0  0  0  0  0  0  0  0  0
    5.9650   -4.6790   19.7500 O   0  0  0  0  0  0  0  0  0  0  0  0
    8.0080   -3.6200   20.3210 C   0  0  0  0  0  0  0  0  0  0  0  0
  2  1  1  0
  3  2  1  0
  4  3  1  0
  5  2  1  0
  6  5  1  0
  7  6  1  0
  7  4  1  0
  8  7  1  0
  8  9  1  1
 10  8  1  0
 11  8  1  0
 12 11  1  0
 13 12  1  0
 14 11  1  0
 15 14  1  0
 16 13  1  0
 16 15  1  0
 17 16  1  0
 18 17  1  0
 19 17  1  0
M  END
$$$$
