
     RDKit          3D

 23 25  0  0  0  0  0  0  0  0999 V2000
    6.0640   -2.9790   21.5230 N   0  0  0  0  0  0  0  0  0  0  0  0
    6.0850    3.2300   29.7940 C   0  0  0  0  0  0  0  0  0  0  0  0
    6.3360    0.2730   24.4850 O   0  0  0  0  0  0  0  0  0  0  0  0
    6.5560    2.1790   28.8200 C   0  0  0  0  0  0  0  0  0  0  0  0
    4.9130   -1.2510   23.6610 O   0  0  0  0  0  0  0  0  0  0  0  0
    5.7650    1.8050   27.7400 C   0  0  0  0  0  0  0  0  0  0  0  0
    5.6780   -4.5090   19.8540 O   0  0  0  0  0  0  0  0  0  0  0  0
    6.2230    0.9150   26.7730 C   0  0  0  0  0  0  0  0  0  0  0  0
    8.3590   -5.1580   21.0820 O   0  0  0  0  0  0  0  0  0  0  0  0
    5.4030    0.6130   25.5530 C   0  0  0  0  0  0  0  0  0  0  0  0
    6.0230   -0.7940   23.7440 C   0  0  0  0  0  0  0  0  0  0  0  0
    7.2220   -1.3700   23.0770 C   0  0  0  0  0  0  0  0  0  0  0  0
    7.1590   -2.3670   22.0850 C   0  0  0  0  0  0  0  0  0  0  0  0
    6.4330   -3.8660   20.5680 C   0  0  0  0  0  0  0  0  0  0  0  0
    7.9500   -3.9300   20.4990 C   0  0  0  0  0  0  0  0  0  0  0  0
    8.3230   -2.8470   21.4890 C   0  0  0  0  0  0  0  0  0  0  0  0
    9.5570   -2.3280   21.8620 C   0  0  0  0  0  0  0  0  0  0  0  0
    9.6290   -1.3550   22.8460 C   0  0  0  0  0  0  0  0  0  0  0  0
    8.4750   -0.8820   23.4520 C   0  0  0  0  0  0  0  0  0  0  0  0
    7.4900    0.3670   26.9190 C   0  0  0  0  0  0  0  0  0  0  0  0
    8.2850    0.7080   28.0000 C   0  0  0  0  0  0  0  0  0  0  0  0
    7.8190    1.6110   28.9410 C   0  0  0  0  0  0  0  0  0  0  0  0
    8.4230   -3.5560   18.7570 S   0  0  0  0  0  0  0  0  0  0  0  0
  4  2  1  0
  6  4  2  0
  8  6  1  0
 10  8  1  0
 10  3  1  0
 11  5  2  0
 11  3  1  0
 12 11  1  0
 13  1  1  0
 13 12  2  0
 14  7  2  0
 14  1  1  0
 15 14  1  0
 15  9  1  1
 16 15  1  0
 16 13  1  0
 17 16  2  0
 18 17  1  0
 19 18  2  0
 19 12  1  0
 20  8  2  0
 21 20  1  0
 22 21  2  0
 22  4  1  0
 15 23  1  0
M  END
