
     RDKit          3D

 13 14  0  0  0  0  0  0  0  0999 V2000
    6.6110   22.5580   -3.8210 F   0  0  0  0  0  0  0  0  0  0  0  0
    6.4890   22.8030   -2.4880 C   0  0  0  0  0  0  0  0  0  0  0  0
    5.5530   22.0850   -1.7740 C   0  0  0  0  0  0  0  0  0  0  0  0
    5.4080   22.3420   -0.4210 C   0  0  0  0  0  0  0  0  0  0  0  0
    7.3030   23.7670   -1.9390 C   0  0  0  0  0  0  0  0  0  0  0  0
    7.1680   24.0290   -0.5780 C   0  0  0  0  0  0  0  0  0  0  0  0
    6.2170   23.3070    0.1650 C   0  0  0  0  0  0  0  0  0  0  0  0
    6.3090   23.7250    1.4700 N   0  0  0  0  0  0  0  0  0  0  0  0
    7.2850   24.6800    1.5630 C   0  0  0  0  0  0  0  0  0  0  0  0
    7.8480   24.9000    0.3400 C   0  0  1  0  0  0  0  0  0  0  0  0
    8.9970   25.8220    0.0130 C   0  0  0  0  0  0  0  0  0  0  0  0
   10.2740   25.2160    0.4080 N   0  0  0  0  0  0  0  0  0  0  0  0
   10.4450   23.8640   -0.1260 C   0  0  0  0  0  0  0  0  0  0  0  0
  2  1  1  0
  3  2  1  0
  4  3  1  0
  5  2  1  0
  6  5  1  0
  7  4  1  0
  7  6  1  0
  8  7  1  0
  9  8  1  0
 10  9  1  0
 10  6  1  0
 10 11  1  1
 12 11  1  0
 13 12  1  0
M  END
$$$$
