
     RDKit          3D

 13 13  0  0  0  0  0  0  0  0999 V2000
    2.3380    4.8530  -10.7940 N   0  0  0  0  0  0  0  0  0  0  0  0
    2.8320    3.5450  -10.8730 C   0  0  1  0  0  0  0  0  0  0  0  0
    3.2620    3.0670  -12.2660 C   0  0  0  0  0  0  0  0  0  0  0  0
    2.1340    3.1330  -13.2490 C   0  0  2  0  0  0  0  0  0  0  0  0
    0.9510    2.1490  -12.9960 C   0  0  0  0  0  0  0  0  0  0  0  0
    0.4040    1.7790  -14.3460 C   0  0  0  0  0  0  0  0  0  0  0  0
    1.5260    2.0830  -15.2650 N   0  0  0  0  0  0  0  0  0  0  0  0
    2.5630    2.8700  -14.6740 C   0  0  0  0  0  0  0  0  0  0  0  0
    3.6010    3.2860  -15.1570 O   0  0  0  0  0  0  0  0  0  0  0  0
    4.0120    3.5140   -9.8470 C   0  0  1  0  0  0  0  0  0  0  0  0
    3.4090    4.0750   -8.7010 O   0  0  0  0  0  0  0  0  0  0  0  0
    4.2380    2.1010   -9.3660 C   0  0  0  0  0  0  0  0  0  0  0  0
    4.7920    1.3330  -10.0850 O   0  0  0  0  0  0  0  0  0  0  0  0
  2  1  1  6
  3  2  1  0
  4  3  1  1
  5  4  1  0
  6  5  1  0
  7  6  1  0
  8  7  1  0
  8  4  1  0
  9  8  1  0
 10  2  1  0
 10 11  1  1
 12 10  1  0
 13 12  1  0
M  END
