
     RDKit          3D

 23 25  0  0  0  0  0  0  0  0999 V2000
    3.6400   -2.5720   26.1590 S   0  0  0  0  0  0  0  0  0  0  0  0
    7.1510   -3.7190   21.3370 N   0  0  0  0  0  0  0  0  0  0  0  0
    5.1440   -3.9150   27.7570 N   0  0  0  0  0  0  0  0  0  0  0  0
    3.6190   -3.7960   32.0960 C   0  0  0  0  0  0  0  0  0  0  0  0
    6.7530   -3.7110   20.0390 C   0  0  0  0  0  0  0  0  0  0  0  0
    2.7700   -4.0420   28.4030 C   0  0  0  0  0  0  0  0  0  0  0  0
    8.1640   -2.8660   21.9680 C   0  0  0  0  0  0  0  0  0  0  0  0
    6.4200   -4.5030   22.3350 C   0  0  0  0  0  0  0  0  0  0  0  0
    5.9550   -3.2770   26.8640 C   0  0  0  0  0  0  0  0  0  0  0  0
    5.3600   -2.5070   25.9300 C   0  0  0  0  0  0  0  0  0  0  0  0
    6.0130   -1.7220   24.8360 C   0  0  0  0  0  0  0  0  0  0  0  0
    2.8360   -1.6690   31.3680 C   0  0  0  0  0  0  0  0  0  0  0  0
    3.4110   -4.3090   30.8270 C   0  0  0  0  0  0  0  0  0  0  0  0
    2.9210   -3.5050   29.8080 C   0  0  0  0  0  0  0  0  0  0  0  0
    3.3310   -2.4770   32.3660 C   0  0  0  0  0  0  0  0  0  0  0  0
    2.6300   -2.1790   30.0960 C   0  0  0  0  0  0  0  0  0  0  0  0
    7.2700   -2.6320   19.1410 C   0  0  0  0  0  0  0  0  0  0  0  0
    6.6980   -2.6520   23.9440 N   0  0  0  0  0  0  0  0  0  0  0  0
    5.9460   -4.5240   19.6300 O   0  0  0  0  0  0  0  0  0  0  0  0
    3.9060   -3.6220   27.5190 C   0  0  0  0  0  0  0  0  0  0  0  0
    7.4880   -1.9110   22.9390 C   0  0  0  0  0  0  0  0  0  0  0  0
    5.7230   -3.5570   23.2920 C   0  0  0  0  0  0  0  0  0  0  0  0
    8.6210   -3.3920   18.4420 S   0  0  0  0  0  0  0  0  0  0  0  0
  5  2  1  0
  7  2  1  0
  8  2  1  0
  9  3  1  0
 10  1  1  0
 10  9  2  0
 11 10  1  0
 13  4  2  0
 14 13  1  0
 14  6  1  0
 15 12  2  0
 15  4  1  0
 16 14  2  0
 16 12  1  0
 17  5  1  0
 18 11  1  0
 19  5  2  0
 20  1  1  0
 20  6  1  0
 20  3  2  0
 21 18  1  0
 21  7  1  0
 22 18  1  0
 22  8  1  0
 17 23  1  0
M  END
