
     RDKit          3D

 20 21  0  0  0  0  0  0  0  0999 V2000
    6.4060    0.6360   17.5310 N   0  0  0  0  0  0  0  0  0  0  0  0
    4.9250    1.0630   21.5600 C   0  0  0  0  0  0  0  0  0  0  0  0
    9.0210    0.9440   21.0940 O   0  0  0  0  0  0  0  0  0  0  0  0
   13.8540   -1.7590   21.3090 Cl  0  0  0  0  0  0  0  0  0  0  0  0
    5.4350    0.8770   20.1530 C   0  0  0  0  0  0  0  0  0  0  0  0
    7.2810   -0.5210   20.9220 N   0  0  0  0  0  0  0  0  0  0  0  0
    4.8130    1.5170   19.0850 C   0  0  0  0  0  0  0  0  0  0  0  0
    5.3240    1.3710   17.8120 C   0  0  0  0  0  0  0  0  0  0  0  0
    7.0060    0.0080   18.5490 C   0  0  0  0  0  0  0  0  0  0  0  0
    6.5680    0.0990   19.8680 C   0  0  2  0  0  0  0  0  0  0  0  0
    8.4190   -0.0500   21.4740 C   0  0  0  0  0  0  0  0  0  0  0  0
    8.9370   -0.8530   22.6880 C   0  0  2  0  0  0  0  0  0  0  0  0
   10.4020   -0.6200   22.9450 C   0  0  2  0  0  0  0  0  0  0  0  0
   10.8270    0.2750   23.9190 C   0  0  0  0  0  0  0  0  0  0  0  0
   12.1740    0.5680   24.0700 C   0  0  0  0  0  0  0  0  0  0  0  0
   13.1150   -0.0340   23.2500 C   0  0  0  0  0  0  0  0  0  0  0  0
   12.6840   -0.9510   22.3120 C   0  0  0  0  0  0  0  0  0  0  0  0
   11.3500   -1.2590   22.1540 C   0  0  0  0  0  0  0  0  0  0  0  0
    8.7150   -2.1770   22.4630 F   0  0  0  0  0  0  0  0  0  0  0  0
    8.1800   -0.5340   23.7780 F   0  0  0  0  0  0  0  0  0  0  0  0
  5  2  1  0
  7  5  1  0
  8  7  1  0
  8  1  1  0
  9  1  1  0
 10  5  1  0
 10  9  1  0
 10  6  1  1
 11  6  1  0
 11  3  1  0
 12 11  1  0
 13 12  1  0
 13 14  1  6
 15 14  1  0
 16 15  1  0
 17  4  1  0
 17 16  1  0
 18 13  1  0
 18 17  1  0
 12 19  1  6
 20 12  1  0
M  END
$$$$
