
     RDKit          3D

 12 11  0  0  0  0  0  0  0  0999 V2000
    0.4880    5.3760   -8.1500 N   0  0  0  0  0  0  0  0  0  0  0  0
   -0.1330    5.1750   -6.8390 C   0  0  2  0  0  0  0  0  0  0  0  0
    0.8560    4.9590   -5.7300 C   0  0  1  0  0  0  0  0  0  0  0  0
    1.6100    6.1410   -5.5910 O   0  0  0  0  0  0  0  0  0  0  0  0
   -1.1330    4.0000   -6.9390 C   0  0  0  0  0  0  0  0  0  0  0  0
   -2.2010    4.2470   -8.0420 C   0  0  0  0  0  0  0  0  0  0  0  0
   -3.4210    5.0350   -7.4640 C   0  0  0  0  0  0  0  0  0  0  0  0
   -3.1830    6.4810   -7.5880 N   0  0  0  0  0  0  0  0  0  0  0  0
   -4.3000    7.4260   -7.3930 C   0  0  0  0  0  0  0  0  0  0  0  0
   -5.6330    6.9140   -7.0750 N   0  0  0  0  0  0  0  0  0  0  0  0
   -4.1070    8.6630   -7.4980 N   0  0  0  0  0  0  0  0  0  0  0  0
    0.1260    4.7820   -4.5400 O   0  0  0  0  0  0  0  0  0  0  0  0
  2  1  1  6
  3  2  1  0
  3  4  1  1
  5  2  1  0
  6  5  1  0
  7  6  1  0
  8  7  1  0
  9  8  1  0
 10  9  1  0
 11  9  1  0
 12  3  1  0
M  END
$$$$
