
     RDKit          3D

 13 13  0  0  0  0  0  0  0  0999 V2000
    6.8130   -3.0830   21.8860 N   0  0  0  0  0  0  0  0  0  0  0  0
    8.4640   -3.1160   20.1000 C   0  0  0  0  0  0  0  0  0  0  0  0
    6.1960   -3.8290   19.8500 O   0  0  0  0  0  0  0  0  0  0  0  0
    7.0560   -3.3790   20.5930 C   0  0  0  0  0  0  0  0  0  0  0  0
    7.1330   -3.2570   24.7200 N   0  0  0  0  0  0  0  0  0  0  0  0
    7.5360   -2.0370   22.6220 C   0  0  0  0  0  0  0  0  0  0  0  0
    8.1640   -2.6230   23.8790 C   0  0  0  0  0  0  0  0  0  0  0  0
    7.6840   -3.7340   25.9850 C   0  0  0  0  0  0  0  0  0  0  0  0
    8.7130   -4.7710   25.8520 C   0  0  0  0  0  0  0  0  0  0  0  0
    9.5330   -5.6010   25.6990 C   0  0  0  0  0  0  0  0  0  0  0  0
    6.4760   -4.3420   23.9660 C   0  0  0  0  0  0  0  0  0  0  0  0
    5.8190   -3.7940   22.7000 C   0  0  0  0  0  0  0  0  0  0  0  0
    8.5530   -3.1070   18.2990 S   0  0  0  0  0  0  0  0  0  0  0  0
  4  3  2  0
  4  2  1  0
  4  1  1  0
  6  1  1  0
  7  6  1  0
  7  5  1  0
  8  5  1  0
  9  8  1  0
 10  9  3  0
 11  5  1  0
 12 11  1  0
 12  1  1  0
  2 13  1  0
M  END
