
     RDKit          3D

 19 20  0  0  0  0  0  0  0  0999 V2000
    6.8870   -4.2930   21.9270 N   0  0  0  0  0  0  0  0  0  0  0  0
    7.8090   -4.7470   19.8480 C   0  0  0  0  0  0  0  0  0  0  0  0
    5.4940   -4.2240   20.1300 O   0  0  0  0  0  0  0  0  0  0  0  0
    6.5900   -4.3900   20.6330 C   0  0  0  0  0  0  0  0  0  0  0  0
    2.0950   -6.6400   23.9230 N   0  0  0  0  0  0  0  0  0  0  0  0
    3.7950   -7.8380   24.7970 O   0  0  0  0  0  0  0  0  0  0  0  0
    6.0090   -4.4330   23.0140 C   0  0  0  0  0  0  0  0  0  0  0  0
    5.9990   -3.4210   23.9660 C   0  0  0  0  0  0  0  0  0  0  0  0
    5.1360   -3.5070   25.0360 C   0  0  0  0  0  0  0  0  0  0  0  0
    4.2850   -4.5930   25.1620 C   0  0  0  0  0  0  0  0  0  0  0  0
    4.2910   -5.6090   24.2150 C   0  0  0  0  0  0  0  0  0  0  0  0
    5.1520   -5.5240   23.1200 C   0  0  0  0  0  0  0  0  0  0  0  0
    3.3630   -6.7820   24.3390 C   0  0  0  0  0  0  0  0  0  0  0  0
    1.5880   -5.4370   23.2500 C   0  0  0  0  0  0  0  0  0  0  0  0
    0.4940   -4.7870   24.0680 C   0  0  0  0  0  0  0  0  0  0  0  0
   -0.0570   -7.2620   24.9280 C   0  0  0  0  0  0  0  0  0  0  0  0
    1.0910   -7.7020   24.0490 C   0  0  0  0  0  0  0  0  0  0  0  0
   -0.9440   -5.8490   24.2530 S   0  0  0  0  0  0  0  0  0  0  0  0
    8.2570   -3.4240   18.7090 S   0  0  0  0  0  0  0  0  0  0  0  0
  4  3  2  0
  4  2  1  0
  4  1  1  0
  7  1  1  0
  8  7  2  0
  9  8  1  0
 10  9  2  0
 11 10  1  0
 12 11  2  0
 12  7  1  0
 13 11  1  0
 13  6  2  0
 13  5  1  0
 14  5  1  0
 15 14  1  0
 17 16  1  0
 17  5  1  0
 18 16  1  0
 18 15  1  0
  2 19  1  0
M  END
