
     RDKit          3D

 23 25  0  0  0  0  0  0  0  0999 V2000
    8.5020   -3.0680   25.5750 N   0  0  0  0  0  0  0  0  0  0  0  0
    9.0360   -4.6300   27.3930 C   0  0  0  0  0  0  0  0  0  0  0  0
    7.6650   -2.7060   27.6320 O   0  0  0  0  0  0  0  0  0  0  0  0
    8.3570   -3.3930   26.8880 C   0  0  0  0  0  0  0  0  0  0  0  0
    9.2910   -1.8910   23.1050 N   0  0  0  0  0  0  0  0  0  0  0  0
    9.4910    0.9800   21.0380 O   0  0  0  0  0  0  0  0  0  0  0  0
    7.7580   -1.9310   25.0050 C   0  0  0  0  0  0  0  0  0  0  0  0
    7.9990   -0.7280   20.8870 N   0  0  0  0  0  0  0  0  0  0  0  0
    8.6720   -1.0730   24.1460 C   0  0  0  0  0  0  0  0  0  0  0  0
    6.7050    0.4590   17.6230 N   0  0  0  0  0  0  0  0  0  0  0  0
   10.0350   -1.0710   22.1590 C   0  0  0  0  0  0  0  0  0  0  0  0
    9.1480   -0.1650   21.3200 C   0  0  0  0  0  0  0  0  0  0  0  0
    7.1220   -0.2010   19.9150 C   0  0  0  0  0  0  0  0  0  0  0  0
    7.4500   -0.1260   18.5680 C   0  0  0  0  0  0  0  0  0  0  0  0
    5.5580    1.0010   17.9960 C   0  0  0  0  0  0  0  0  0  0  0  0
    5.0910    1.0280   19.3280 C   0  0  0  0  0  0  0  0  0  0  0  0
    3.8910    1.6660   19.7140 C   0  0  0  0  0  0  0  0  0  0  0  0
    3.5090    1.6900   21.0250 C   0  0  0  0  0  0  0  0  0  0  0  0
    4.2850    1.0840   21.9970 C   0  0  0  0  0  0  0  0  0  0  0  0
    5.4500    0.4550   21.6670 C   0  0  0  0  0  0  0  0  0  0  0  0
    5.8960    0.4050   20.3240 C   0  0  0  0  0  0  0  0  0  0  0  0
   10.1490   -2.8880   23.7470 C   0  0  0  0  0  0  0  0  0  0  0  0
    9.3020   -3.8300   24.6000 C   0  0  0  0  0  0  0  0  0  0  0  0
  4  1  1  0
  4  3  2  0
  4  2  1  0
  7  1  1  0
  9  7  1  0
  9  5  1  0
 11  5  1  0
 12  8  1  0
 12  6  2  0
 12 11  1  0
 13  8  1  0
 14 13  1  0
 14 10  2  0
 15 10  1  0
 16 15  2  0
 17 16  1  0
 18 17  2  0
 19 18  1  0
 20 19  2  0
 21 16  1  0
 21 20  1  0
 21 13  2  0
 22  5  1  0
 23 22  1  0
 23  1  1  0
M  END
