
     RDKit          3D

 23 24  0  0  0  0  0  0  0  0999 V2000
   11.3710    5.5530   24.0890 O   0  0  0  0  0  0  0  0  0  0  0  0
   10.7460    4.2710   24.1010 S   0  0  1  0  0  0  0  0  0  0  0  0
    9.9510    3.9010   25.2250 O   0  0  0  0  0  0  0  0  0  0  0  0
    9.7880    4.2210   22.8030 N   0  0  0  0  0  0  0  0  0  0  0  0
   11.8490    3.0710   23.9020 N   0  0  0  0  0  0  0  0  0  0  0  0
   11.6760    1.6760   23.5680 C   0  0  2  0  0  0  0  0  0  0  0  0
   12.7950    0.9250   23.2070 C   0  0  0  0  0  0  0  0  0  0  0  0
   12.6100   -0.3580   22.7240 C   0  0  2  0  0  0  0  0  0  0  0  0
   13.9900   -1.2670   22.1750 Cl  0  0  0  0  0  0  0  0  0  0  0  0
   11.3570   -0.9230   22.6140 C   0  0  0  0  0  0  0  0  0  0  0  0
   10.4080    1.0980   23.4900 C   0  0  0  0  0  0  0  0  0  0  0  0
   10.2390   -0.1910   22.9880 C   0  0  1  0  0  0  0  0  0  0  0  0
    8.8550   -0.7360   22.7110 C   0  0  0  0  0  0  0  0  0  0  0  0
    8.2850   -0.0940   21.4600 C   0  0  0  0  0  0  0  0  0  0  0  0
    8.8540    0.8360   20.9100 O   0  0  0  0  0  0  0  0  0  0  0  0
    7.1030   -0.5880   21.0310 N   0  0  0  0  0  0  0  0  0  0  0  0
    6.4390   -0.0270   19.9100 C   0  0  1  0  0  0  0  0  0  0  0  0
    5.2960    0.7750   20.0980 C   0  0  0  0  0  0  0  0  0  0  0  0
    4.6770    0.9790   21.4560 C   0  0  0  0  0  0  0  0  0  0  0  0
    6.9440   -0.1680   18.6160 C   0  0  0  0  0  0  0  0  0  0  0  0
    6.4280    0.4460   17.5450 N   0  0  0  0  0  0  0  0  0  0  0  0
    5.3430    1.2040   17.7380 C   0  0  0  0  0  0  0  0  0  0  0  0
    4.7540    1.3900   18.9740 C   0  0  0  0  0  0  0  0  0  0  0  0
  2  1  1  0
  3  2  1  0
  2  4  1  6
  5  2  1  0
  6  5  1  6
  7  6  1  0
  8  7  1  0
  8  9  1  6
 10  8  1  0
 11  6  1  0
 12 11  1  0
 12 10  1  0
 12 13  1  6
 14 13  1  0
 15 14  1  0
 16 14  1  0
 17 16  1  1
 18 17  1  0
 19 18  1  0
 20 17  1  0
 21 20  1  0
 22 21  1  0
 23 22  1  0
 23 18  1  0
M  END
$$$$
