
     RDKit          3D

 20 22  0  0  0  0  0  0  0  0999 V2000
    6.3430    0.5770   17.5130 N   0  0  0  0  0  0  0  0  0  0  0  0
    4.7360    1.0330   21.4930 C   0  0  0  0  0  0  0  0  0  0  0  0
    8.8290    0.5230   21.0870 O   0  0  0  0  0  0  0  0  0  0  0  0
    5.2600    0.8110   20.0970 C   0  0  0  0  0  0  0  0  0  0  0  0
    6.9520   -0.7470   20.8920 N   0  0  0  0  0  0  0  0  0  0  0  0
    4.7260    1.5070   19.0190 C   0  0  0  0  0  0  0  0  0  0  0  0
    5.3000    1.3750   17.7680 C   0  0  0  0  0  0  0  0  0  0  0  0
    6.8460   -0.1220   18.5340 C   0  0  0  0  0  0  0  0  0  0  0  0
    6.3500   -0.0380   19.8360 C   0  0  0  0  0  0  0  0  0  0  0  0
    8.1170   -0.4070   21.4720 C   0  0  0  0  0  0  0  0  0  0  0  0
    8.4600   -1.2330   22.6960 C   0  0  0  0  0  0  0  0  0  0  0  0
    9.6630   -0.6370   23.3820 C   0  0  0  0  0  0  0  0  0  0  0  0
    9.5210    0.3460   24.3500 C   0  0  0  0  0  0  0  0  0  0  0  0
   10.6260    1.0360   24.8240 C   0  0  0  0  0  0  0  0  0  0  0  0
   11.8870    0.7320   24.3410 C   0  0  0  0  0  0  0  0  0  0  0  0
   12.0580   -0.2780   23.4050 C   0  0  0  0  0  0  0  0  0  0  0  0
   10.9400   -0.9560   22.9380 C   0  0  0  0  0  0  0  0  0  0  0  0
   13.4300   -0.6620   22.9010 C   0  0  1  0  0  0  0  0  0  0  0  0
   13.8420   -2.1010   22.8080 C   0  0  0  0  0  0  0  0  0  0  0  0
   13.6010   -1.3340   21.5710 C   0  0  0  0  0  0  0  0  0  0  0  0
  4  2  1  0
  6  4  2  0
  7  6  1  0
  7  1  2  0
  8  1  1  0
  9  4  1  0
  9  8  2  0
  9  5  1  0
 10  5  1  0
 10  3  2  0
 11 10  1  0
 12 11  1  0
 13 12  2  0
 14 13  1  0
 15 14  2  0
 16 15  1  0
 17 12  1  0
 17 16  2  0
 18 16  1  1
 19 18  1  0
 20 19  1  0
 20 18  1  0
M  END
