
     RDKit          3D

 15 16  0  0  0  0  0  0  0  0999 V2000
    8.3900   -1.3850   20.8020 C   0  0  0  0  0  0  0  0  0  0  0  0
    7.4290   -2.0600   19.9210 N   0  0  0  0  0  0  0  0  0  0  0  0
    7.3530   -1.6700   18.5010 C   0  0  0  0  0  0  0  0  0  0  0  0
    6.5140   -0.3770   18.4050 C   0  0  0  0  0  0  0  0  0  0  0  0
    5.5380    0.0240   19.3150 C   0  0  0  0  0  0  0  0  0  0  0  0
    5.0360    1.2180   18.8760 C   0  0  0  0  0  0  0  0  0  0  0  0
    3.9400    2.0380   19.5570 C   0  0  0  0  0  0  0  0  0  0  0  0
    5.6770    1.5270   17.7590 O   0  0  0  0  0  0  0  0  0  0  0  0
    6.5950    0.5690   17.4590 N   0  0  0  0  0  0  0  0  0  0  0  0
    6.5420   -3.0930   20.4610 C   0  0  0  0  0  0  0  0  0  0  0  0
    5.7680   -3.6330   19.7340 O   0  0  0  0  0  0  0  0  0  0  0  0
    6.6170   -3.4580   21.8840 N   0  0  0  0  0  0  0  0  0  0  0  0
    5.7380   -4.4960   22.4390 C   0  0  2  0  0  0  0  0  0  0  0  0
    6.4280   -5.5070   23.3600 C   0  0  0  0  0  0  0  0  0  0  0  0
    6.0050   -5.9210   21.9440 C   0  0  0  0  0  0  0  0  0  0  0  0
  2  1  1  0
  3  2  1  0
  4  3  1  0
  5  4  1  0
  6  5  2  0
  7  6  1  0
  8  6  1  0
  9  8  1  0
  9  4  2  0
 10  2  1  0
 11 10  2  0
 12 10  1  0
 13 12  1  6
 14 13  1  0
 15 14  1  0
 15 13  1  0
M  END
