
     RDKit          3D

 15 16  0  0  0  0  0  0  0  0999 V2000
   26.0300  -10.3530    4.1220 C   0  0  0  0  0  0  0  0  0  0  0  0
   26.3840  -10.2760    5.6140 C   0  0  0  0  0  0  0  0  0  0  0  0
   27.2980  -11.0910    5.9970 N   0  0  0  0  0  0  0  0  0  0  0  0
   27.8960  -10.7730    7.2210 C   0  0  0  0  0  0  0  0  0  0  0  0
   27.6910  -11.7620    8.3560 C   0  0  0  0  0  0  0  0  0  0  0  0
   27.8810  -13.0470    7.9170 O   0  0  0  0  0  0  0  0  0  0  0  0
   27.0060  -13.3760    6.8940 C   0  0  0  0  0  0  0  0  0  0  0  0
   27.1030  -12.4420    5.6930 C   0  0  0  0  0  0  0  0  0  0  0  0
   24.2780  -10.8080    3.9550 S   0  0  0  0  0  0  0  0  0  0  0  0
   23.3690   -9.4470    4.7200 C   0  0  0  0  0  0  0  0  0  0  0  0
   23.6450   -8.1520    4.3220 C   0  0  0  0  0  0  0  0  0  0  0  0
   22.9730   -7.1000    4.9000 C   0  0  0  0  0  0  0  0  0  0  0  0
   22.0210   -7.3240    5.8830 C   0  0  0  0  0  0  0  0  0  0  0  0
   21.7510   -8.6190    6.2830 C   0  0  0  0  0  0  0  0  0  0  0  0
   22.4290   -9.6850    5.7040 C   0  0  0  0  0  0  0  0  0  0  0  0
  2  1  1  0
  3  2  1  0
  4  3  1  0
  5  4  1  0
  6  5  1  0
  7  6  1  0
  8  7  1  0
  8  3  1  0
  9  1  1  0
 10  9  1  0
 11 10  2  0
 12 11  1  0
 13 12  2  0
 14 13  1  0
 15 14  2  0
 15 10  1  0
M  END
