
     RDKit          3D

 22 24  0  0  0  0  0  0  0  0999 V2000
    9.5680    1.0210   21.1030 O   0  0  0  0  0  0  0  0  0  0  0  0
    9.2840   -0.1500   21.3370 C   0  0  0  0  0  0  0  0  0  0  0  0
    8.1850   -0.7760   20.8550 N   0  0  0  0  0  0  0  0  0  0  0  0
    7.2370   -0.2040   19.9740 C   0  0  0  0  0  0  0  0  0  0  0  0
    6.0400    0.3280   20.4710 C   0  0  0  0  0  0  0  0  0  0  0  0
    5.6490    0.2180   21.9370 C   0  0  2  0  0  0  0  0  0  0  0  0
    4.6350    1.1530   22.5260 C   0  0  0  0  0  0  0  0  0  0  0  0
    6.0500    1.2590   22.9430 C   0  0  0  0  0  0  0  0  0  0  0  0
    5.1780    0.9470   19.5710 C   0  0  0  0  0  0  0  0  0  0  0  0
    5.5200    0.9920   18.2350 C   0  0  0  0  0  0  0  0  0  0  0  0
    6.6510    0.4830   17.7420 N   0  0  0  0  0  0  0  0  0  0  0  0
    7.4880   -0.1040   18.6050 C   0  0  0  0  0  0  0  0  0  0  0  0
   10.1740   -1.0210   22.2060 C   0  0  0  0  0  0  0  0  0  0  0  0
    9.4200   -1.8850   23.1070 N   0  0  0  0  0  0  0  0  0  0  0  0
    8.6560   -1.1020   24.0830 C   0  0  0  0  0  0  0  0  0  0  0  0
    7.7480   -2.0170   24.8770 C   0  0  0  0  0  0  0  0  0  0  0  0
   10.2960   -2.8190   23.8210 C   0  0  0  0  0  0  0  0  0  0  0  0
    9.4630   -3.7990   24.6370 C   0  0  0  0  0  0  0  0  0  0  0  0
    8.5370   -3.0750   25.5230 N   0  0  0  0  0  0  0  0  0  0  0  0
    8.3520   -3.3240   26.8390 C   0  0  0  0  0  0  0  0  0  0  0  0
    7.9900   -2.4340   27.5950 O   0  0  0  0  0  0  0  0  0  0  0  0
    8.5420   -4.7300   27.3250 C   0  0  0  0  0  0  0  0  0  0  0  0
  2  1  2  0
  3  2  1  0
  4  3  1  0
  5  4  1  0
  6  5  1  6
  7  6  1  0
  8  7  1  0
  8  6  1  0
  9  5  2  0
 10  9  1  0
 11 10  2  0
 12 11  1  0
 12  4  2  0
 13  2  1  0
 14 13  1  0
 15 14  1  0
 16 15  1  0
 17 14  1  0
 18 17  1  0
 19 18  1  0
 19 16  1  0
 20 19  1  0
 21 20  2  0
 22 20  1  0
M  END
