
     RDKit          3D

 13 14  0  0  0  0  0  0  0  0999 V2000
    4.7110    8.1080   10.8320 N   0  0  0  0  0  0  0  0  0  0  0  0
    2.0820    9.9830    9.6790 C   0  0  0  0  0  0  0  0  0  0  0  0
    1.7400    9.2790   10.8320 O   0  0  0  0  0  0  0  0  0  0  0  0
    3.4440    9.4810    9.1680 C   0  0  2  0  0  0  0  0  0  0  0  0
    3.2620    8.1310    8.4500 C   0  0  0  0  0  0  0  0  0  0  0  0
    4.4200    9.3610   10.3210 C   0  0  0  0  0  0  0  0  0  0  0  0
    5.6180    8.0510   11.8450 C   0  0  0  0  0  0  0  0  0  0  0  0
    6.2520    9.1850   12.3830 C   0  0  0  0  0  0  0  0  0  0  0  0
    5.9320   10.4360   11.8680 C   0  0  0  0  0  0  0  0  0  0  0  0
    5.0140   10.5380   10.8380 C   0  0  0  0  0  0  0  0  0  0  0  0
    3.9790   10.4020    8.0650 C   0  0  0  0  0  0  0  0  0  0  0  0
    3.4790    9.8320    6.7360 C   0  0  0  0  0  0  0  0  0  0  0  0
    2.7860    8.5160    7.0510 C   0  0  0  0  0  0  0  0  0  0  0  0
  3  2  1  0
  4  2  1  1
  5  4  1  0
  6  4  1  0
  6  1  2  0
  7  1  1  0
  8  7  2  0
  9  8  1  0
 10  6  1  0
 10  9  2  0
 11  4  1  0
 12 11  1  0
 13 12  1  0
 13  5  1  0
M  END
