
     RDKit          3D

  8  8  0  0  0  0  0  0  0  0999 V2000
    5.4580    4.5670   -2.8980 C   0  0  0  0  0  0  0  0  0  0  0  0
    4.6880    5.0520   -1.8230 O   0  0  0  0  0  0  0  0  0  0  0  0
    7.6190    3.3860   -3.4630 C   0  0  0  0  0  0  0  0  0  0  0  0
    8.8340    2.8020   -3.1290 C   0  0  0  0  0  0  0  0  0  0  0  0
    9.2400    2.7530   -1.8060 C   0  0  0  0  0  0  0  0  0  0  0  0
    8.4240    3.2910   -0.8230 C   0  0  0  0  0  0  0  0  0  0  0  0
    7.2080    3.8770   -1.1590 C   0  0  0  0  0  0  0  0  0  0  0  0
    6.7950    3.9280   -2.4850 C   0  0  0  0  0  0  0  0  0  0  0  0
  2  1  1  0
  4  3  2  0
  5  4  1  0
  6  5  2  0
  7  6  1  0
  8  7  2  0
  8  3  1  0
  8  1  1  0
M  END
$$$$
