
     RDKit          3D

 30 33  0  0  0  0  0  0  0  0999 V2000
    8.5230   -4.1690   26.2050 N   0  0  0  0  0  0  0  0  0  0  0  0
    6.9070   -6.1830   28.7460 C   0  0  0  0  0  0  0  0  0  0  0  0
    7.0970   -3.4500   27.8410 O   0  0  0  0  0  0  0  0  0  0  0  0
    8.1310   -5.6020   28.0740 C   0  0  0  0  0  0  0  0  0  0  0  0
    9.3780    0.1130   22.6940 N   0  0  0  0  0  0  0  0  0  0  0  0
    9.0140    1.5110   20.9510 O   0  0  0  0  0  0  0  0  0  0  0  0
    7.8570   -4.2960   27.3780 C   0  0  0  0  0  0  0  0  0  0  0  0
    7.0990   -0.0600   19.7880 N   0  0  0  0  0  0  0  0  0  0  0  0
    8.5260   -3.0910   25.2840 C   0  0  0  0  0  0  0  0  0  0  0  0
    7.4580   -0.1980   18.4860 N   0  0  0  0  0  0  0  0  0  0  0  0
    9.1660   -3.3210   24.0720 C   0  0  0  0  0  0  0  0  0  0  0  0
    6.5980    0.4350   17.7420 N   0  0  0  0  0  0  0  0  0  0  0  0
    9.3920   -2.2820   23.1910 C   0  0  0  0  0  0  0  0  0  0  0  0
    8.9640   -0.9940   23.4990 C   0  0  0  0  0  0  0  0  0  0  0  0
    8.2510   -0.7770   24.6770 C   0  0  0  0  0  0  0  0  0  0  0  0
    8.0400   -1.8170   25.5660 C   0  0  0  0  0  0  0  0  0  0  0  0
   10.5120    0.9070   23.1560 C   0  0  0  0  0  0  0  0  0  0  0  0
   11.7720    0.0910   23.2870 C   0  0  0  0  0  0  0  0  0  0  0  0
   12.5590   -0.0790   24.4600 C   0  0  0  0  0  0  0  0  0  0  0  0
   13.5530   -1.0170   24.3150 C   0  0  0  0  0  0  0  0  0  0  0  0
   12.2060   -0.7070   22.2690 C   0  0  0  0  0  0  0  0  0  0  0  0
    8.8130    0.4390   21.4940 C   0  0  0  0  0  0  0  0  0  0  0  0
    7.9230   -0.6210   20.8390 C   0  0  0  0  0  0  0  0  0  0  0  0
    5.6470    0.9950   18.5660 C   0  0  0  0  0  0  0  0  0  0  0  0
    4.5080    1.7410   18.2830 C   0  0  0  0  0  0  0  0  0  0  0  0
    3.6890    2.1280   19.3380 C   0  0  0  0  0  0  0  0  0  0  0  0
    4.0090    1.7930   20.6540 C   0  0  0  0  0  0  0  0  0  0  0  0
    5.1540    1.0620   20.9460 C   0  0  0  0  0  0  0  0  0  0  0  0
    5.9550    0.6710   19.8830 C   0  0  0  0  0  0  0  0  0  0  0  0
   13.5250   -1.6810   22.7270 S   0  0  0  0  0  0  0  0  0  0  0  0
  4  2  1  0
  7  4  1  0
  7  1  1  0
  7  3  2  0
  9  1  1  0
 10  8  1  0
 11  9  2  0
 12 10  2  0
 13 11  1  0
 14 13  2  0
 14  5  1  0
 15 14  1  0
 16 15  2  0
 16  9  1  0
 17  5  1  0
 18 17  1  0
 19 18  1  0
 20 19  2  0
 21 18  2  0
 22  6  2  0
 22  5  1  0
 23 22  1  0
 23  8  1  0
 24 12  1  0
 25 24  2  0
 26 25  1  0
 27 26  2  0
 28 27  1  0
 29 28  2  0
 29 24  1  0
 29  8  1  0
 30 21  1  0
 30 20  1  0
M  END
