
     RDKit          3D

 17 18  0  0  0  0  0  0  0  0999 V2000
    9.0680    0.8800   20.9630 O   0  0  0  0  0  0  0  0  0  0  0  0
    8.4900   -0.1230   21.3590 C   0  0  0  0  0  0  0  0  0  0  0  0
    8.9870   -0.9270   22.5440 C   0  0  0  0  0  0  0  0  0  0  0  0
   10.4590   -0.6960   22.7890 C   0  0  0  0  0  0  0  0  0  0  0  0
   10.8970    0.1970   23.7590 C   0  0  0  0  0  0  0  0  0  0  0  0
   12.2430    0.4970   23.8890 C   0  0  0  0  0  0  0  0  0  0  0  0
   13.1780   -0.1010   23.0590 C   0  0  0  0  0  0  0  0  0  0  0  0
   11.4010   -1.3160   21.9770 C   0  0  0  0  0  0  0  0  0  0  0  0
   12.7380   -1.0080   22.1200 C   0  0  0  0  0  0  0  0  0  0  0  0
   13.8990   -1.8270   21.1200 Cl  0  0  0  0  0  0  0  0  0  0  0  0
    7.3580   -0.5750   20.8120 N   0  0  0  0  0  0  0  0  0  0  0  0
    6.6810    0.0460   19.7520 C   0  0  0  0  0  0  0  0  0  0  0  0
    7.2310    0.0370   18.4730 C   0  0  0  0  0  0  0  0  0  0  0  0
    6.6970    0.6910   17.4400 N   0  0  0  0  0  0  0  0  0  0  0  0
    5.5750    1.3840   17.6630 C   0  0  0  0  0  0  0  0  0  0  0  0
    4.9460    1.4450   18.8890 C   0  0  0  0  0  0  0  0  0  0  0  0
    5.5130    0.7690   19.9520 C   0  0  0  0  0  0  0  0  0  0  0  0
  2  1  2  0
  3  2  1  0
  4  3  1  0
  5  4  2  0
  6  5  1  0
  7  6  2  0
  8  4  1  0
  9  8  2  0
  9  7  1  0
 10  9  1  0
 11  2  1  0
 12 11  1  0
 13 12  2  0
 14 13  1  0
 15 14  2  0
 16 15  1  0
 17 16  2  0
 17 12  1  0
M  END
