
     RDKit          3D

 18 19  0  0  0  0  0  0  0  0999 V2000
   14.3990   -1.9780   20.5260 N   0  0  0  0  0  0  0  0  0  0  0  0
   13.6900   -1.4980   21.2810 C   0  0  0  0  0  0  0  0  0  0  0  0
   12.7640   -0.9010   22.2100 C   0  0  0  0  0  0  0  0  0  0  0  0
   13.1990   -0.1020   23.2680 C   0  0  0  0  0  0  0  0  0  0  0  0
   12.3660    0.4740   24.1430 N   0  0  0  0  0  0  0  0  0  0  0  0
   11.0520    0.2600   23.9740 C   0  0  0  0  0  0  0  0  0  0  0  0
   11.3960   -1.1080   22.0640 C   0  0  0  0  0  0  0  0  0  0  0  0
   10.5110   -0.5150   22.9590 C   0  0  0  0  0  0  0  0  0  0  0  0
    9.0180   -0.6630   22.7930 C   0  0  0  0  0  0  0  0  0  0  0  0
    8.5600    0.1200   21.5780 C   0  0  0  0  0  0  0  0  0  0  0  0
    9.3220    0.8720   20.9710 O   0  0  0  0  0  0  0  0  0  0  0  0
    7.2540   -0.0210   21.2740 N   0  0  0  0  0  0  0  0  0  0  0  0
    6.6290    0.1920   20.0280 C   0  0  0  0  0  0  0  0  0  0  0  0
    7.2980    0.1370   18.8040 C   0  0  0  0  0  0  0  0  0  0  0  0
    6.7950    0.6270   17.6640 N   0  0  0  0  0  0  0  0  0  0  0  0
    5.5920    1.2100   17.7230 C   0  0  0  0  0  0  0  0  0  0  0  0
    4.8500    1.3120   18.8860 C   0  0  0  0  0  0  0  0  0  0  0  0
    5.3700    0.7760   20.0500 C   0  0  0  0  0  0  0  0  0  0  0  0
  2  1  3  0
  3  2  1  0
  4  3  2  0
  5  4  1  0
  6  5  2  0
  7  3  1  0
  8  7  2  0
  8  6  1  0
  9  8  1  0
 10  9  1  0
 11 10  2  0
 12 10  1  0
 13 12  1  0
 14 13  2  0
 15 14  1  0
 16 15  2  0
 17 16  1  0
 18 17  2  0
 18 13  1  0
M  END
