
     RDKit          3D

 25 27  0  0  0  0  0  0  0  0999 V2000
    9.2340   -0.7460   22.4970 N   0  0  0  0  0  0  0  0  0  0  0  0
    6.5650    0.6350   17.6500 N   0  0  0  0  0  0  0  0  0  0  0  0
    7.6130   -5.4310   27.0190 C   0  0  0  0  0  0  0  0  0  0  0  0
   13.2830    0.1320   23.1300 C   0  0  0  0  0  0  0  0  0  0  0  0
    5.4410    1.3210   17.8970 C   0  0  0  0  0  0  0  0  0  0  0  0
    8.7240   -3.5090   25.0200 C   0  0  1  0  0  0  0  0  0  0  0  0
   12.3110    0.6870   23.9490 C   0  0  0  0  0  0  0  0  0  0  0  0
    5.4730    0.7590   20.2090 C   0  0  0  0  0  0  0  0  0  0  0  0
    8.4130   -1.5160   23.4470 C   0  0  0  0  0  0  0  0  0  0  0  0
   11.5870   -1.1760   22.0210 C   0  0  0  0  0  0  0  0  0  0  0  0
   10.6120   -0.5730   22.8140 C   0  0  1  0  0  0  0  0  0  0  0  0
    9.0510   -5.5420   26.5240 C   0  0  0  0  0  0  0  0  0  0  0  0
    7.2800   -3.4180   25.5310 C   0  0  0  0  0  0  0  0  0  0  0  0
    4.8590    1.4070   19.1530 C   0  0  0  0  0  0  0  0  0  0  0  0
    9.2070   -4.9600   25.1160 C   0  0  0  0  0  0  0  0  0  0  0  0
    7.1200   -3.9900   26.9410 C   0  0  0  0  0  0  0  0  0  0  0  0
    7.1420    0.0080   18.6780 C   0  0  0  0  0  0  0  0  0  0  0  0
    8.6270   -0.0820   21.4040 C   0  0  0  0  0  0  0  0  0  0  0  0
   12.9050   -0.8010   22.1900 C   0  0  0  0  0  0  0  0  0  0  0  0
    7.3940   -0.5170   21.0410 N   0  0  0  0  0  0  0  0  0  0  0  0
    9.2060    0.8460   20.8520 O   0  0  0  0  0  0  0  0  0  0  0  0
    8.8710   -2.9600   23.5900 C   0  0  0  0  0  0  0  0  0  0  0  0
   10.9780    0.3340   23.8010 C   0  0  0  0  0  0  0  0  0  0  0  0
    6.6470    0.0510   19.9840 C   0  0  1  0  0  0  0  0  0  0  0  0
   14.1200   -1.5130   21.1630 Cl  0  0  0  0  0  0  0  0  0  0  0  0
  5  2  1  0
  7  4  1  0
  9  1  1  0
 11  1  1  6
 11 10  1  0
 12  3  1  0
 13  6  1  0
 14  5  1  0
 14  8  1  0
 15 12  1  0
 15  6  1  0
 16 13  1  0
 16  3  1  0
 17  2  1  0
 18  1  1  0
 19 10  1  0
 19  4  1  0
 20 18  1  0
 21 18  1  0
 22  9  1  0
  6 22  1  6
 23 11  1  0
 23  7  1  0
 24 20  1  1
 24 17  1  0
 24  8  1  0
 25 19  1  0
M  END
$$$$
