
     RDKit          3D

 18 19  0  0  0  0  0  0  0  0999 V2000
    8.9660    0.5410   20.7820 O   0  0  0  0  0  0  0  0  0  0  0  0
    8.1820   -0.1750   21.4000 C   0  0  0  0  0  0  0  0  0  0  0  0
    8.5540   -0.7590   22.7520 C   0  0  0  0  0  0  0  0  0  0  0  0
    9.9860   -0.6590   23.0030 N   0  0  0  0  0  0  0  0  0  0  0  0
   10.2890   -0.8310   24.4410 C   0  0  0  0  0  0  0  0  0  0  0  0
   11.7910   -0.7140   24.7080 C   0  0  0  0  0  0  0  0  0  0  0  0
   10.7180   -1.6540   22.1960 C   0  0  0  0  0  0  0  0  0  0  0  0
   12.2200   -1.5410   22.4080 C   0  0  0  0  0  0  0  0  0  0  0  0
   12.5840   -1.7060   23.8720 C   0  0  1  0  0  0  0  0  0  0  0  0
   14.0770   -1.5990   24.1080 C   0  0  0  0  0  0  0  0  0  0  0  0
    6.9380   -0.4820   20.9760 N   0  0  0  0  0  0  0  0  0  0  0  0
    6.3090    0.1020   19.8510 C   0  0  0  0  0  0  0  0  0  0  0  0
    5.1470    0.8650   20.0330 C   0  0  0  0  0  0  0  0  0  0  0  0
    4.5070    1.0340   21.3880 C   0  0  0  0  0  0  0  0  0  0  0  0
    4.6140    1.4950   18.9120 C   0  0  0  0  0  0  0  0  0  0  0  0
    5.2390    1.3510   17.6850 C   0  0  0  0  0  0  0  0  0  0  0  0
    6.3450    0.6210   17.4970 N   0  0  0  0  0  0  0  0  0  0  0  0
    6.8620    0.0090   18.5680 C   0  0  0  0  0  0  0  0  0  0  0  0
  2  1  2  0
  3  2  1  0
  4  3  1  0
  5  4  1  0
  6  5  1  0
  7  4  1  0
  8  7  1  0
  9  8  1  0
  9  6  1  0
  9 10  1  6
 11  2  1  0
 12 11  1  0
 13 12  2  0
 14 13  1  0
 15 13  1  0
 16 15  2  0
 17 16  1  0
 18 17  2  0
 18 12  1  0
M  END
