
     RDKit          3D

 22 25  0  0  0  0  0  0  0  0999 V2000
    7.6720   -0.4690   20.7470 N   0  0  0  0  0  0  0  0  0  0  0  0
    8.8720   -2.0450   22.8760 C   0  0  0  0  0  0  0  0  0  0  0  0
   10.5690    1.0680   24.7530 O   0  0  0  0  0  0  0  0  0  0  0  0
    9.1380   -0.5310   22.7590 C   0  0  1  0  0  0  0  0  0  0  0  0
    7.7550    0.0210   18.3780 N   0  0  0  0  0  0  0  0  0  0  0  0
    9.1820    1.1950   21.0690 O   0  0  0  0  0  0  0  0  0  0  0  0
    8.4370    0.2000   23.9330 C   0  0  0  0  0  0  0  0  0  0  0  0
    6.8680    0.5920   17.4810 N   0  0  0  0  0  0  0  0  0  0  0  0
    9.2160    1.4130   24.4030 C   0  0  0  0  0  0  0  0  0  0  0  0
    5.8990    0.5210   19.4500 N   0  0  0  0  0  0  0  0  0  0  0  0
   11.2630    0.5000   23.7150 C   0  0  0  0  0  0  0  0  0  0  0  0
   12.6210    0.7770   23.6690 C   0  0  0  0  0  0  0  0  0  0  0  0
   13.3960    0.1690   22.6920 C   0  0  0  0  0  0  0  0  0  0  0  0
   12.8200   -0.6970   21.7880 C   0  0  0  0  0  0  0  0  0  0  0  0
   11.4600   -0.9530   21.8330 C   0  0  0  0  0  0  0  0  0  0  0  0
   10.6540   -0.3440   22.7850 C   0  0  2  0  0  0  0  0  0  0  0  0
    8.6850    0.1420   21.4440 C   0  0  0  0  0  0  0  0  0  0  0  0
    7.1550   -0.0120   19.5530 C   0  0  0  0  0  0  0  0  0  0  0  0
    5.7810    0.8680   18.1370 C   0  0  0  0  0  0  0  0  0  0  0  0
    4.9180    0.7360   20.5300 C   0  0  2  0  0  0  0  0  0  0  0  0
    3.9430    1.8490   20.3800 C   0  0  0  0  0  0  0  0  0  0  0  0
    5.0530    1.9520   21.3750 C   0  0  0  0  0  0  0  0  0  0  0  0
  4  2  1  6
  7  4  1  0
  8  5  1  0
  9  7  1  0
  9  3  1  0
 11  3  1  0
 12 11  1  0
 13 12  1  0
 14 13  1  0
 15 14  1  0
 16  4  1  0
 16 15  1  6
 16 11  1  0
 17  6  1  0
 17  1  1  0
 17  4  1  0
 18 10  1  0
 18  5  1  0
 18  1  1  0
 19 10  1  0
 19  8  1  0
 20 10  1  6
 21 20  1  0
 22 21  1  0
 22 20  1  0
M  END
$$$$
