
     RDKit          3D

 17 19  0  0  0  0  0  0  0  0999 V2000
    6.7960    0.4590   17.8360 N   0  0  0  0  0  0  0  0  0  0  0  0
    5.8390    0.0920   22.0330 C   0  0  0  0  0  0  0  0  0  0  0  0
    9.6000    1.2040   21.1640 O   0  0  0  0  0  0  0  0  0  0  0  0
    6.2020    0.2440   20.5750 C   0  0  0  0  0  0  0  0  0  0  0  0
    8.4220   -0.7280   20.9560 N   0  0  0  0  0  0  0  0  0  0  0  0
    5.3040    0.8130   19.6740 C   0  0  0  0  0  0  0  0  0  0  0  0
    5.6310    0.8840   18.3360 C   0  0  0  0  0  0  0  0  0  0  0  0
    7.6750   -0.0730   18.6940 C   0  0  0  0  0  0  0  0  0  0  0  0
    7.4420   -0.2060   20.0660 C   0  0  0  0  0  0  0  0  0  0  0  0
    9.4550    0.0080   21.4120 C   0  0  0  0  0  0  0  0  0  0  0  0
   10.4510   -0.7600   22.2520 C   0  0  1  0  0  0  0  0  0  0  0  0
   11.8780   -0.2280   22.2730 C   0  0  2  0  0  0  0  0  0  0  0  0
   13.0170   -1.2610   22.3020 C   0  0  0  0  0  0  0  0  0  0  0  0
   13.1490   -2.1180   23.5670 C   0  0  0  0  0  0  0  0  0  0  0  0
   12.7620   -1.3460   24.8120 C   0  0  0  0  0  0  0  0  0  0  0  0
   11.3140   -0.8510   24.7340 C   0  0  0  0  0  0  0  0  0  0  0  0
   11.0040   -0.0380   23.4730 C   0  0  2  0  0  0  0  0  0  0  0  0
  4  2  1  0
  6  4  2  0
  7  6  1  0
  7  1  2  0
  8  1  1  0
  9  8  2  0
  9  5  1  0
  9  4  1  0
 10  5  1  0
 10  3  2  0
 11 10  1  6
 12 11  1  0
 12 13  1  1
 14 13  1  0
 15 14  1  0
 16 15  1  0
 17 11  1  0
 17 16  1  1
 17 12  1  0
M  END
