
     RDKit          3D

 19 20  0  0  0  0  0  0  0  0999 V2000
   11.6150   -4.2450   26.0080 F   0  0  0  0  0  0  0  0  0  0  0  0
   12.1290   -3.2030   25.2830 C   0  0  0  0  0  0  0  0  0  0  0  0
   13.4670   -2.9380   25.3870 C   0  0  0  0  0  0  0  0  0  0  0  0
   13.9790   -1.9090   24.6120 C   0  0  0  0  0  0  0  0  0  0  0  0
   13.1500   -1.1670   23.7800 C   0  0  0  0  0  0  0  0  0  0  0  0
   11.2730   -2.4830   24.4670 C   0  0  0  0  0  0  0  0  0  0  0  0
   11.7870   -1.4310   23.7100 C   0  0  0  0  0  0  0  0  0  0  0  0
   10.8730   -0.5280   22.9170 C   0  0  0  0  0  0  0  0  0  0  0  0
    9.6430   -1.1810   22.2420 C   0  0  0  0  0  0  0  0  0  0  0  0
    8.8800   -0.2030   21.3710 C   0  0  0  0  0  0  0  0  0  0  0  0
    9.3520    0.8910   21.0580 O   0  0  0  0  0  0  0  0  0  0  0  0
    7.6640   -0.6390   20.9530 N   0  0  0  0  0  0  0  0  0  0  0  0
    6.8830   -0.0170   19.9340 C   0  0  0  0  0  0  0  0  0  0  0  0
    5.6920    0.6770   20.2580 C   0  0  0  0  0  0  0  0  0  0  0  0
    5.2060    0.8120   21.6780 C   0  0  0  0  0  0  0  0  0  0  0  0
    7.2890   -0.0380   18.5970 C   0  0  0  0  0  0  0  0  0  0  0  0
    6.6190    0.5580   17.6050 N   0  0  0  0  0  0  0  0  0  0  0  0
    5.4860    1.1940   17.9290 C   0  0  0  0  0  0  0  0  0  0  0  0
    4.9980    1.2810   19.2180 C   0  0  0  0  0  0  0  0  0  0  0  0
  2  1  1  0
  3  2  2  0
  4  3  1  0
  5  4  2  0
  6  2  1  0
  7  6  2  0
  7  5  1  0
  8  7  1  0
  9  8  1  0
 10  9  1  0
 11 10  2  0
 12 10  1  0
 13 12  1  0
 14 13  2  0
 15 14  1  0
 16 13  1  0
 17 16  2  0
 18 17  1  0
 19 18  2  0
 19 14  1  0
M  END
