
     RDKit          3D

 23 25  0  0  0  0  0  0  0  0999 V2000
    9.5280   -0.5630   21.8790 N   0  0  0  0  0  0  0  0  0  0  0  0
   12.2480    4.3910   21.8040 N   0  0  0  0  0  0  0  0  0  0  0  0
    4.8550    1.5630   19.0070 N   0  0  0  0  0  0  0  0  0  0  0  0
   11.8280   -1.2180   22.1970 C   0  0  0  0  0  0  0  0  0  0  0  0
   12.0950    3.7570   23.1110 C   0  0  1  0  0  0  0  0  0  0  0  0
   12.9610    2.6180   23.3050 O   0  0  0  0  0  0  0  0  0  0  0  0
    5.4250    0.8390   19.9780 C   0  0  0  0  0  0  0  0  0  0  0  0
   10.8520   -0.2270   22.2490 C   0  0  0  0  0  0  0  0  0  0  0  0
    7.0270    0.0080   18.4850 C   0  0  0  0  0  0  0  0  0  0  0  0
    6.5230    0.0180   19.7740 C   0  0  0  0  0  0  0  0  0  0  0  0
    7.3160   -0.5390   20.9340 C   0  0  0  0  0  0  0  0  0  0  0  0
   12.5170    1.3680   22.9270 C   0  0  0  0  0  0  0  0  0  0  0  0
   12.8210    5.5060   22.2940 C   0  0  0  0  0  0  0  0  0  0  0  0
   11.1940    1.0690   22.6250 C   0  0  0  0  0  0  0  0  0  0  0  0
   14.0680   -1.8450   22.4700 F   0  0  0  0  0  0  0  0  0  0  0  0
   12.8110    4.9680   23.7190 C   0  0  0  0  0  0  0  0  0  0  0  0
   13.5050    0.3970   22.8700 C   0  0  0  0  0  0  0  0  0  0  0  0
   13.1210   -0.8710   22.5030 C   0  0  0  0  0  0  0  0  0  0  0  0
    6.4910    0.7110   17.4820 N   0  0  0  0  0  0  0  0  0  0  0  0
    8.7880    1.3620   20.8950 O   0  0  0  0  0  0  0  0  0  0  0  0
   13.2000    6.5410   21.7470 O   0  0  0  0  0  0  0  0  0  0  0  0
    5.4200    1.4450   17.8030 C   0  0  0  0  0  0  0  0  0  0  0  0
    8.6100    0.1930   21.2310 C   0  0  0  0  0  0  0  0  0  0  0  0
  5  2  1  0
  5  6  1  6
  7  3  2  0
  8  1  1  0
  8  4  2  0
 10  7  1  0
 10  9  2  0
 11 10  1  0
 12  6  1  0
 13  2  1  0
 14  8  1  0
 14 12  2  0
 16  5  1  0
 16 13  1  0
 17 12  1  0
 18 17  2  0
 18 15  1  0
 18  4  1  0
 19  9  1  0
 21 13  2  0
 22  3  1  0
 22 19  2  0
 23 20  2  0
 23 11  1  0
 23  1  1  0
M  END
