
     RDKit          3D

 13 13  0  0  0  0  0  0  0  0999 V2000
    6.1950   -5.1060   19.6990 N   0  0  0  0  0  0  0  0  0  0  0  0
    7.0940   -4.1980   19.8690 C   0  0  0  0  0  0  0  0  0  0  0  0
    7.0040   -3.4030   21.1500 C   0  0  0  0  0  0  0  0  0  0  0  0
    8.1070   -2.7060   21.4780 N   0  0  0  0  0  0  0  0  0  0  0  0
    8.0430   -2.0160   22.6090 C   0  0  0  0  0  0  0  0  0  0  0  0
    9.1520   -1.3960   23.0720 O   0  0  0  0  0  0  0  0  0  0  0  0
   10.3420   -1.4490   22.2730 C   0  0  0  0  0  0  0  0  0  0  0  0
    6.9110   -1.9740   23.4130 C   0  0  0  0  0  0  0  0  0  0  0  0
    5.8630   -3.4750   21.8650 N   0  0  0  0  0  0  0  0  0  0  0  0
    5.8600   -2.7870   23.0030 C   0  0  0  0  0  0  0  0  0  0  0  0
    4.8780   -2.9300   23.9220 O   0  0  0  0  0  0  0  0  0  0  0  0
    3.7990   -3.8260   23.6290 C   0  0  0  0  0  0  0  0  0  0  0  0
    8.4870   -3.7130   18.7590 S   0  0  0  0  0  0  0  0  0  0  0  0
  2  1  2  0
  3  2  1  0
  4  3  2  0
  5  4  1  0
  6  5  1  0
  7  6  1  0
  8  5  2  0
  9  3  1  0
 10  9  2  0
 10  8  1  0
 11 10  1  0
 12 11  1  0
  2 13  1  0
M  END
