
     RDKit          3D

 17 18  0  0  0  0  0  0  0  0999 V2000
    7.1970   -4.7730   21.5910 N   0  0  0  0  0  0  0  0  0  0  0  0
    7.5360   -2.4450   22.3920 C   0  0  0  0  0  0  0  0  0  0  0  0
    5.6600   -5.1660   19.9900 O   0  0  0  0  0  0  0  0  0  0  0  0
    7.4680   -3.9220   22.7590 C   0  0  1  0  0  0  0  0  0  0  0  0
    6.5390   -4.4450   20.4660 C   0  0  0  0  0  0  0  0  0  0  0  0
    6.9070   -3.2700   19.5700 C   0  0  0  0  0  0  0  0  0  0  0  0
    6.4770   -4.1690   23.8890 C   0  0  0  0  0  0  0  0  0  0  0  0
    5.1490   -4.3870   23.6070 C   0  0  0  0  0  0  0  0  0  0  0  0
    4.2000   -4.6030   24.6230 C   0  0  0  0  0  0  0  0  0  0  0  0
    4.5830   -4.6080   25.9220 C   0  0  0  0  0  0  0  0  0  0  0  0
    5.9330   -4.3940   26.2840 C   0  0  0  0  0  0  0  0  0  0  0  0
    6.3320   -4.4030   27.6420 C   0  0  0  0  0  0  0  0  0  0  0  0
    7.6280   -4.2020   27.9890 C   0  0  0  0  0  0  0  0  0  0  0  0
    8.5970   -3.9760   27.0030 C   0  0  0  0  0  0  0  0  0  0  0  0
    8.2490   -3.9560   25.6840 C   0  0  0  0  0  0  0  0  0  0  0  0
    6.9060   -4.1690   25.2640 C   0  0  0  0  0  0  0  0  0  0  0  0
    8.4760   -3.5130   18.6800 S   0  0  0  0  0  0  0  0  0  0  0  0
  4  1  1  0
  4  2  1  6
  5  3  2  0
  5  1  1  0
  6  5  1  0
  7  4  1  0
  8  7  2  0
  9  8  1  0
 10  9  2  0
 11 10  1  0
 12 11  2  0
 13 12  1  0
 14 13  2  0
 15 14  1  0
 16 15  2  0
 16 11  1  0
 16  7  1  0
  6 17  1  0
M  END
