
     RDKit          3D

 15 16  0  0  0  0  0  0  0  0999 V2000
    8.4620   -1.4260   20.8180 C   0  0  0  0  0  0  0  0  0  0  0  0
    7.4230   -1.7030   18.5170 C   0  0  0  0  0  0  0  0  0  0  0  0
    6.5860   -0.4090   18.4240 C   0  0  0  0  0  0  0  0  0  0  0  0
    5.6120   -0.0080   19.3360 C   0  0  0  0  0  0  0  0  0  0  0  0
    5.1130    1.1880   18.9000 C   0  0  0  0  0  0  0  0  0  0  0  0
    4.0180    2.0090   19.5830 C   0  0  0  0  0  0  0  0  0  0  0  0
    6.6110   -3.1300   20.4730 C   0  0  0  0  0  0  0  0  0  0  0  0
    5.8040   -4.5360   22.4490 C   0  0  2  0  0  0  0  0  0  0  0  0
    6.4920   -5.5500   23.3670 C   0  0  0  0  0  0  0  0  0  0  0  0
    6.0680   -5.9600   21.9500 C   0  0  0  0  0  0  0  0  0  0  0  0
    7.4990   -2.0970   19.9360 N   0  0  0  0  0  0  0  0  0  0  0  0
    6.6690    0.5400   17.4800 N   0  0  0  0  0  0  0  0  0  0  0  0
    6.6850   -3.4990   21.8960 N   0  0  0  0  0  0  0  0  0  0  0  0
    5.7530    1.4990   17.7840 O   0  0  0  0  0  0  0  0  0  0  0  0
    5.8350   -3.6660   19.7450 O   0  0  0  0  0  0  0  0  0  0  0  0
  3  2  1  0
  4  3  1  0
  5  4  1  0
  6  5  1  0
  9  8  1  0
 10  9  1  0
 10  8  1  0
 11  7  1  0
 11  2  1  0
 11  1  1  0
 12  3  1  0
 13  7  1  0
  8 13  1  6
 14  5  1  0
 14 12  1  0
 15  7  1  0
M  END
$$$$
