
     RDKit          3D

 16 17  0  0  0  0  0  0  0  0999 V2000
    9.0960    6.2080   22.6360 C   0  0  0  0  0  0  0  0  0  0  0  0
   10.3770    5.9070   23.4030 C   0  0  0  0  0  0  0  0  0  0  0  0
   10.4190    6.0990   24.5670 O   0  0  0  0  0  0  0  0  0  0  0  0
   11.5280    5.3750   22.6940 N   0  0  0  0  0  0  0  0  0  0  0  0
   12.7700    5.0420   23.3650 C   0  0  0  0  0  0  0  0  0  0  0  0
   13.1470    3.6130   22.9670 C   0  0  0  0  0  0  0  0  0  0  0  0
   12.1590    2.5300   23.4310 C   0  0  0  0  0  0  0  0  0  0  0  0
   11.0360    2.7090   24.2210 C   0  0  0  0  0  0  0  0  0  0  0  0
   10.4450    1.5330   24.3860 N   0  0  0  0  0  0  0  0  0  0  0  0
   11.1370    0.5570   23.7310 C   0  0  0  0  0  0  0  0  0  0  0  0
   10.9080   -0.8390   23.6090 C   0  0  0  0  0  0  0  0  0  0  0  0
   11.7890   -1.6190   22.8650 C   0  0  0  0  0  0  0  0  0  0  0  0
   12.8930   -1.0270   22.2410 C   0  0  0  0  0  0  0  0  0  0  0  0
   13.1160    0.3440   22.3680 C   0  0  0  0  0  0  0  0  0  0  0  0
   12.2200    1.1460   23.1250 C   0  0  0  0  0  0  0  0  0  0  0  0
   13.7590   -1.7830   21.5110 F   0  0  0  0  0  0  0  0  0  0  0  0
  2  1  1  0
  3  2  1  0
  4  2  1  0
  5  4  1  0
  6  5  1  0
  7  6  1  0
  8  7  1  0
  9  8  1  0
 10  9  1  0
 11 10  1  0
 12 11  1  0
 13 12  1  0
 14 13  1  0
 15 14  1  0
 15 10  1  0
 15  7  1  0
 16 13  1  0
M  END
$$$$
