
     RDKit          3D

 25 26  0  0  0  0  0  0  0  0999 V2000
    7.3330   -1.7380   21.4540 N   0  0  0  0  0  0  0  0  0  0  0  0
    8.1230   -0.6970   20.7460 C   0  0  1  0  0  0  0  0  0  0  0  0
    7.1730   -0.0690   19.7430 C   0  0  1  0  0  0  0  0  0  0  0  0
    6.0070    0.5490   20.1580 C   0  0  0  0  0  0  0  0  0  0  0  0
    5.1740    1.1480   19.2350 C   0  0  0  0  0  0  0  0  0  0  0  0
    5.5440    1.1180   17.9110 C   0  0  0  0  0  0  0  0  0  0  0  0
    6.6690    0.5500   17.4770 N   0  0  0  0  0  0  0  0  0  0  0  0
    7.4510   -0.0340   18.3870 C   0  0  0  0  0  0  0  0  0  0  0  0
    8.8240    0.3720   21.6020 C   0  0  0  0  0  0  0  0  0  0  0  0
    9.6770    1.1070   21.1210 O   0  0  0  0  0  0  0  0  0  0  0  0
    8.3810    0.4550   22.8630 N   0  0  0  0  0  0  0  0  0  0  0  0
    8.9640    1.2990   23.9290 C   0  0  1  0  0  0  0  0  0  0  0  0
    8.1600    1.0810   25.2030 C   0  0  0  0  0  0  0  0  0  0  0  0
   10.4140    0.8860   24.1430 C   0  0  0  0  0  0  0  0  0  0  0  0
    8.8800    2.7580   23.4960 C   0  0  0  0  0  0  0  0  0  0  0  0
    7.9460   -2.7260   22.2920 C   0  0  2  0  0  0  0  0  0  0  0  0
    7.1660   -3.6790   22.9380 C   0  0  0  0  0  0  0  0  0  0  0  0
    7.7460   -4.5670   23.8290 C   0  0  0  0  0  0  0  0  0  0  0  0
    9.1060   -4.5150   24.1130 C   0  0  1  0  0  0  0  0  0  0  0  0
    9.8800   -3.5810   23.4390 C   0  0  0  0  0  0  0  0  0  0  0  0
    9.3170   -2.7040   22.5300 C   0  0  0  0  0  0  0  0  0  0  0  0
    9.7120   -5.3950   25.1850 C   0  0  0  0  0  0  0  0  0  0  0  0
    9.3010   -4.8740   26.5740 C   0  0  0  0  0  0  0  0  0  0  0  0
    8.0760   -5.5020   27.0740 C   0  0  0  0  0  0  0  0  0  0  0  0
    7.1330   -6.0290   27.4470 N   0  0  0  0  0  0  0  0  0  0  0  0
  2  1  1  1
  3  2  1  0
  3  4  1  1
  5  4  1  0
  6  5  1  0
  7  6  1  0
  8  7  1  0
  8  3  1  0
  9  2  1  0
 10  9  1  0
 11  9  1  0
 12 11  1  0
 12 13  1  1
 14 12  1  0
 15 12  1  0
 16  1  1  1
 17 16  1  0
 18 17  1  0
 19 18  1  0
 20 19  1  0
 21 20  1  0
 21 16  1  0
 19 22  1  1
 23 22  1  0
 24 23  1  0
 25 24  1  0
M  END
