
     RDKit          3D

 29 30  0  0  0  0  0  0  0  0999 V2000
    9.2900    1.5740   20.9480 O   0  0  0  0  0  0  0  0  0  0  0  0
    8.3430    1.3200   21.6850 C   0  0  0  0  0  0  0  0  0  0  0  0
    8.1080    1.9240   22.8610 N   0  0  0  0  0  0  0  0  0  0  0  0
    8.9300    2.9860   23.4910 C   0  0  1  0  0  0  0  0  0  0  0  0
   10.4100    2.8320   23.1640 C   0  0  0  0  0  0  0  0  0  0  0  0
    8.4270    4.3370   23.0020 C   0  0  0  0  0  0  0  0  0  0  0  0
    8.7300    2.8720   24.9950 C   0  0  0  0  0  0  0  0  0  0  0  0
    7.3200    0.2360   21.3090 C   0  0  2  0  0  0  0  0  0  0  0  0
    7.6960   -1.1520   21.6740 N   0  0  0  0  0  0  0  0  0  0  0  0
    8.8510   -1.4100   22.4820 C   0  0  1  0  0  0  0  0  0  0  0  0
   10.1940   -0.9900   22.2760 C   0  0  0  0  0  0  0  0  0  0  0  0
   10.8190   -1.3440   23.4060 C   0  0  0  0  0  0  0  0  0  0  0  0
   12.2540   -1.1170   23.8260 C   0  0  2  0  0  0  0  0  0  0  0  0
   12.7840   -2.3560   24.5550 C   0  0  0  0  0  0  0  0  0  0  0  0
   12.3230    0.0850   24.7700 C   0  0  0  0  0  0  0  0  0  0  0  0
   13.1210   -0.8520   22.5910 C   0  0  0  0  0  0  0  0  0  0  0  0
    9.9850   -1.9650   24.2640 O   0  0  0  0  0  0  0  0  0  0  0  0
    8.6970   -2.0230   23.6790 N   0  0  0  0  0  0  0  0  0  0  0  0
    6.8810   -2.2670   21.4500 C   0  0  0  0  0  0  0  0  0  0  0  0
    5.6720   -2.1240   21.4750 O   0  0  0  0  0  0  0  0  0  0  0  0
    7.5130   -3.6060   21.2000 C   0  0  0  0  0  0  0  0  0  0  0  0
    7.1390   -4.1360   19.8690 C   0  0  0  0  0  0  0  0  0  0  0  0
    6.7200    0.4560   19.9290 C   0  0  0  0  0  0  0  0  0  0  0  0
    5.5750    1.2240   19.7680 C   0  0  0  0  0  0  0  0  0  0  0  0
    5.0740    1.4670   18.5010 C   0  0  0  0  0  0  0  0  0  0  0  0
    5.7380    0.9230   17.4190 C   0  0  0  0  0  0  0  0  0  0  0  0
    6.8340    0.1620   17.5390 N   0  0  0  0  0  0  0  0  0  0  0  0
    7.3010   -0.0540   18.7760 C   0  0  0  0  0  0  0  0  0  0  0  0
    8.5310   -3.8260   18.8600 S   0  0  0  0  0  0  0  0  0  0  0  0
  2  1  1  0
  3  2  1  0
  4  3  1  0
  4  5  1  1
  6  4  1  0
  7  4  1  0
  8  2  1  6
  9  8  1  0
 10  9  1  1
 11 10  1  0
 12 11  1  0
 13 12  1  0
 13 14  1  1
 15 13  1  0
 16 13  1  0
 17 12  1  0
 18 17  1  0
 18 10  1  0
 19  9  1  0
 20 19  1  0
 21 19  1  0
 22 21  1  0
 23  8  1  0
 24 23  1  0
 25 24  1  0
 26 25  1  0
 27 26  1  0
 28 27  1  0
 28 23  1  0
 22 29  1  0
M  END
$$$$
