
     RDKit          3D

 20 21  0  0  0  0  0  0  0  0999 V2000
   14.3260   -1.9850   20.5020 N   0  0  0  0  0  0  0  0  0  0  0  0
   13.6230   -1.5270   21.2760 C   0  0  0  0  0  0  0  0  0  0  0  0
   12.6970   -0.9580   22.2250 C   0  0  0  0  0  0  0  0  0  0  0  0
   13.1560   -0.1430   23.2570 C   0  0  0  0  0  0  0  0  0  0  0  0
   12.2520    0.3960   24.1570 C   0  0  0  0  0  0  0  0  0  0  0  0
   10.8950    0.1590   24.0040 C   0  0  0  0  0  0  0  0  0  0  0  0
   11.3330   -1.2090   22.0870 C   0  0  0  0  0  0  0  0  0  0  0  0
   10.4220   -0.6260   22.9610 C   0  0  0  0  0  0  0  0  0  0  0  0
    8.9410   -0.8190   22.7410 C   0  0  0  0  0  0  0  0  0  0  0  0
    8.4830   -0.0480   21.5220 C   0  0  0  0  0  0  0  0  0  0  0  0
    9.0970    0.9310   21.1090 O   0  0  0  0  0  0  0  0  0  0  0  0
    7.3340   -0.5030   20.9780 N   0  0  0  0  0  0  0  0  0  0  0  0
    6.6450    0.1180   19.9080 C   0  0  0  0  0  0  0  0  0  0  0  0
    5.5010    0.8960   20.1590 C   0  0  0  0  0  0  0  0  0  0  0  0
    5.0060    1.1350   21.5670 C   0  0  0  0  0  0  0  0  0  0  0  0
    7.1220   -0.0430   18.6130 C   0  0  0  0  0  0  0  0  0  0  0  0
    6.5260    0.4980   17.5490 N   0  0  0  0  0  0  0  0  0  0  0  0
    5.4260    1.2280   17.7620 C   0  0  0  0  0  0  0  0  0  0  0  0
    4.8670    1.4710   19.0560 C   0  0  0  0  0  0  0  0  0  0  0  0
    3.7430    2.3020   19.1630 N   0  0  0  0  0  0  0  0  0  0  0  0
  2  1  3  0
  3  2  1  0
  4  3  2  0
  5  4  1  0
  6  5  2  0
  7  3  1  0
  8  6  1  0
  8  7  2  0
  9  8  1  0
 10  9  1  0
 11 10  2  0
 12 10  1  0
 13 12  1  0
 14 13  2  0
 15 14  1  0
 16 13  1  0
 17 16  2  0
 18 17  1  0
 19 18  2  0
 19 14  1  0
 20 19  1  0
M  END
