
     RDKit          3D

  7  7  0  0  0  0  0  0  0  0999 V2000
   13.0000  -27.3190    3.8480 N   0  0  0  0  0  0  0  0  0  0  0  0
   11.8890  -26.6150    3.4490 C   0  0  0  0  0  0  0  0  0  0  0  0
   10.7800  -27.3230    3.1330 O   0  0  0  0  0  0  0  0  0  0  0  0
   11.8340  -25.2090    3.3180 C   0  0  0  0  0  0  0  0  0  0  0  0
   12.9960  -24.5040    3.6150 C   0  0  0  0  0  0  0  0  0  0  0  0
   14.1530  -25.1910    4.0200 C   0  0  0  0  0  0  0  0  0  0  0  0
   14.1060  -26.5860    4.1210 C   0  0  0  0  0  0  0  0  0  0  0  0
  2  1  2  0
  3  2  1  0
  4  2  1  0
  5  4  2  0
  6  5  1  0
  7  1  1  0
  7  6  2  0
M  END
