
     RDKit          3D

 13 14  0  0  0  0  0  0  0  0999 V2000
   10.2680    3.1070   22.2460 N   0  0  0  0  0  0  0  0  0  0  0  0
    9.4790    1.8670   22.2440 C   0  0  0  0  0  0  0  0  0  0  0  0
    9.1480    1.3630   21.1900 O   0  0  0  0  0  0  0  0  0  0  0  0
    9.0950    1.2110   23.6120 C   0  0  1  0  0  0  0  0  0  0  0  0
    7.7700    1.1150   23.7630 C   0  0  0  0  0  0  0  0  0  0  0  0
    7.3810   -0.3950   23.3520 C   0  0  0  0  0  0  0  0  0  0  0  0
    8.7510   -1.0870   23.0180 C   0  0  0  0  0  0  0  0  0  0  0  0
    9.6720   -0.3510   23.6970 C   0  0  1  0  0  0  0  0  0  0  0  0
   11.0990   -0.4360   23.1010 C   0  0  0  0  0  0  0  0  0  0  0  0
   12.1030    0.4890   23.4780 C   0  0  0  0  0  0  0  0  0  0  0  0
   13.3590    0.2790   22.8570 C   0  0  0  0  0  0  0  0  0  0  0  0
   13.1680   -1.1180   21.8190 S   0  0  0  0  0  0  0  0  0  0  0  0
   11.4790   -1.4330   22.1810 C   0  0  0  0  0  0  0  0  0  0  0  0
  2  1  1  0
  3  2  2  0
  4  2  1  6
  5  4  1  0
  6  5  1  0
  7  6  1  0
  8  7  1  0
  8  4  1  0
  8  9  1  6
 10  9  1  0
 11 10  2  0
 12 11  1  0
 13 12  1  0
 13  9  2  0
M  END
