
     RDKit          3D

 24 26  0  0  0  0  0  0  0  0999 V2000
    5.5410   -2.6980   20.7630 O   0  0  0  0  0  0  0  0  0  0  0  0
    6.2730   -1.7160   20.6940 C   0  0  0  0  0  0  0  0  0  0  0  0
    5.9770   -0.5680   19.7730 C   0  0  0  0  0  0  0  0  0  0  0  0
    4.9940    0.4020   20.1040 C   0  0  0  0  0  0  0  0  0  0  0  0
    4.3950    0.5260   21.3870 C   0  0  0  0  0  0  0  0  0  0  0  0
    3.4450    1.4750   21.6280 C   0  0  0  0  0  0  0  0  0  0  0  0
    3.0410    2.3410   20.6270 C   0  0  0  0  0  0  0  0  0  0  0  0
    3.5970    2.2770   19.3840 C   0  0  0  0  0  0  0  0  0  0  0  0
    4.5930    1.3130   19.0880 C   0  0  0  0  0  0  0  0  0  0  0  0
    5.2270    1.2120   17.8280 C   0  0  0  0  0  0  0  0  0  0  0  0
    6.1630    0.3170   17.5320 N   0  0  0  0  0  0  0  0  0  0  0  0
    6.5090   -0.5560   18.4850 C   0  0  0  0  0  0  0  0  0  0  0  0
    7.3520   -1.5710   21.4650 N   0  0  0  0  0  0  0  0  0  0  0  0
    7.6710   -2.5250   22.5190 C   0  0  0  0  0  0  0  0  0  0  0  0
    9.1450   -2.5540   22.8100 C   0  0  0  0  0  0  0  0  0  0  0  0
    9.6370   -1.2180   22.6190 O   0  0  0  0  0  0  0  0  0  0  0  0
   10.9710   -0.9760   22.8120 C   0  0  0  0  0  0  0  0  0  0  0  0
   11.3030    0.3480   23.1720 C   0  0  0  0  0  0  0  0  0  0  0  0
   10.2370    1.1870   23.3580 O   0  0  0  0  0  0  0  0  0  0  0  0
   10.5100    2.5400   23.7210 C   0  0  0  0  0  0  0  0  0  0  0  0
   11.9760   -1.9070   22.5970 C   0  0  0  0  0  0  0  0  0  0  0  0
   13.3010   -1.5260   22.7290 C   0  0  0  0  0  0  0  0  0  0  0  0
   13.6290   -0.2270   23.0820 C   0  0  0  0  0  0  0  0  0  0  0  0
   12.6370    0.7150   23.3010 C   0  0  0  0  0  0  0  0  0  0  0  0
  2  1  2  0
  3  2  1  0
  4  3  1  0
  5  4  2  0
  6  5  1  0
  7  6  2  0
  8  7  1  0
  9  8  2  0
  9  4  1  0
 10  9  1  0
 11 10  2  0
 12 11  1  0
 12  3  2  0
 13  2  1  0
 14 13  1  0
 15 14  1  0
 16 15  1  0
 17 16  1  0
 18 17  2  0
 19 18  1  0
 20 19  1  0
 21 17  1  0
 22 21  2  0
 23 22  1  0
 24 23  2  0
 24 18  1  0
M  END
