
     RDKit          3D

 25 28  0  0  0  0  0  0  0  0999 V2000
    9.2200    1.5100   21.2970 O   0  0  0  0  0  0  0  0  0  0  0  0
    8.8870    0.4220   21.7600 C   0  0  0  0  0  0  0  0  0  0  0  0
    9.5390   -0.1420   23.0210 C   0  0  1  0  0  0  0  0  0  0  0  0
   11.0480   -0.1110   22.8900 C   0  0  0  0  0  0  0  0  0  0  0  0
   11.7240   -0.9810   22.0300 C   0  0  0  0  0  0  0  0  0  0  0  0
   13.0930   -0.8760   21.8860 C   0  0  0  0  0  0  0  0  0  0  0  0
   13.8990   -1.8800   20.7110 Cl  0  0  0  0  0  0  0  0  0  0  0  0
   13.8240    0.0520   22.5920 C   0  0  0  0  0  0  0  0  0  0  0  0
   13.1720    0.9060   23.4610 C   0  0  0  0  0  0  0  0  0  0  0  0
   11.7990    0.8230   23.6050 C   0  0  0  0  0  0  0  0  0  0  0  0
   11.2350    1.7110   24.4910 O   0  0  0  0  0  0  0  0  0  0  0  0
    9.8150    1.9010   24.4260 C   0  0  0  0  0  0  0  0  0  0  0  0
    9.0810    0.5820   24.3110 C   0  0  1  0  0  0  0  0  0  0  0  0
    7.5720    0.8040   24.3390 C   0  0  0  0  0  0  0  0  0  0  0  0
    7.9440   -0.3660   21.2070 N   0  0  0  0  0  0  0  0  0  0  0  0
    7.0850   -0.0500   20.1410 C   0  0  0  0  0  0  0  0  0  0  0  0
    5.8190    0.5480   20.4400 C   0  0  0  0  0  0  0  0  0  0  0  0
    5.2970    0.6760   21.7530 C   0  0  0  0  0  0  0  0  0  0  0  0
    4.1080    1.3120   21.9770 C   0  0  0  0  0  0  0  0  0  0  0  0
    3.3870    1.8550   20.9220 C   0  0  0  0  0  0  0  0  0  0  0  0
    3.8430    1.7490   19.6390 C   0  0  0  0  0  0  0  0  0  0  0  0
    5.0610    1.0810   19.3610 C   0  0  0  0  0  0  0  0  0  0  0  0
    5.5900    0.9420   18.0550 C   0  0  0  0  0  0  0  0  0  0  0  0
    6.7530    0.3630   17.7760 N   0  0  0  0  0  0  0  0  0  0  0  0
    7.4680   -0.1150   18.8020 C   0  0  0  0  0  0  0  0  0  0  0  0
  2  1  2  0
  3  2  1  6
  4  3  1  0
  5  4  2  0
  6  5  1  0
  7  6  1  0
  8  6  2  0
  9  8  1  0
 10  9  2  0
 10  4  1  0
 11 10  1  0
 12 11  1  0
 13 12  1  0
 13  3  1  0
 13 14  1  6
 15  2  1  0
 16 15  1  0
 17 16  1  0
 18 17  2  0
 19 18  1  0
 20 19  2  0
 21 20  1  0
 22 21  2  0
 22 17  1  0
 23 22  1  0
 24 23  2  0
 25 24  1  0
 25 16  2  0
M  END
