
     RDKit          3D

 21 23  0  0  0  0  0  0  0  0999 V2000
    8.8110    0.8950   21.0940 O   0  0  0  0  0  0  0  0  0  0  0  0
    8.3560   -0.2230   21.3130 C   0  0  2  0  0  0  0  0  0  0  0  0
    8.8670   -1.0890   22.4500 C   0  0  0  0  0  0  0  0  0  0  0  0
   10.3070   -0.7550   22.7700 C   0  0  2  0  0  0  0  0  0  0  0  0
   10.6290    0.2740   23.6470 C   0  0  0  0  0  0  0  0  0  0  0  0
   11.9490    0.6590   23.8360 C   0  0  0  0  0  0  0  0  0  0  0  0
   12.9700    0.0060   23.1640 C   0  0  0  0  0  0  0  0  0  0  0  0
   11.3330   -1.4120   22.1020 C   0  0  0  0  0  0  0  0  0  0  0  0
   12.6400   -1.0240   22.3040 C   0  0  0  0  0  0  0  0  0  0  0  0
   13.9020   -1.8400   21.4230 Cl  0  0  0  0  0  0  0  0  0  0  0  0
    7.4610   -0.7920   20.5100 N   0  0  0  0  0  0  0  0  0  0  0  0
    6.6020   -0.2430   19.6390 C   0  0  1  0  0  0  0  0  0  0  0  0
    5.4840    0.5560   20.0750 C   0  0  1  0  0  0  0  0  0  0  0  0
    4.8260    1.3110   19.0630 C   0  0  0  0  0  0  0  0  0  0  0  0
    5.3770    1.2750   17.7680 C   0  0  0  0  0  0  0  0  0  0  0  0
    6.4470    0.5930   17.4570 N   0  0  0  0  0  0  0  0  0  0  0  0
    7.0320   -0.1840   18.3840 N   0  0  0  0  0  0  0  0  0  0  0  0
    4.9380    0.5850   21.3830 C   0  0  0  0  0  0  0  0  0  0  0  0
    3.8010    1.2990   21.6560 C   0  0  0  0  0  0  0  0  0  0  0  0
    3.1590    2.0160   20.6620 C   0  0  0  0  0  0  0  0  0  0  0  0
    3.6480    2.0320   19.3910 C   0  0  0  0  0  0  0  0  0  0  0  0
  2  1  1  6
  3  2  1  0
  4  3  1  6
  5  4  1  0
  6  5  1  0
  7  6  1  0
  8  4  1  0
  9  8  1  0
  9  7  1  0
 10  9  1  0
 11  2  1  0
 12 11  1  1
 13 12  1  0
 14 13  1  0
 15 14  1  0
 16 15  1  0
 17 16  1  0
 17 12  1  0
 13 18  1  6
 19 18  1  0
 20 19  1  0
 21 20  1  0
 21 14  1  0
M  END
$$$$
