
     RDKit          3D

 23 25  0  0  0  0  0  0  0  0999 V2000
    7.0840   -3.6790   21.3260 N   0  0  0  0  0  0  0  0  0  0  0  0
    7.2020   -2.5970   19.1280 C   0  0  0  0  0  0  0  0  0  0  0  0
    5.8810   -4.4910   19.6210 O   0  0  0  0  0  0  0  0  0  0  0  0
    6.6870   -3.6750   20.0280 C   0  0  0  0  0  0  0  0  0  0  0  0
    6.6280   -2.6070   23.9300 N   0  0  0  0  0  0  0  0  0  0  0  0
    8.0950   -2.8220   21.9550 C   0  0  0  0  0  0  0  0  0  0  0  0
    5.0740   -3.8630   27.7460 N   0  0  0  0  0  0  0  0  0  0  0  0
    7.4160   -1.8670   22.9240 C   0  0  0  0  0  0  0  0  0  0  0  0
    5.9400   -1.6760   24.8190 C   0  0  0  0  0  0  0  0  0  0  0  0
    5.2880   -2.4600   25.9150 C   0  0  0  0  0  0  0  0  0  0  0  0
    5.8840   -3.2260   26.8510 C   0  0  0  0  0  0  0  0  0  0  0  0
    3.8360   -3.5730   27.5070 C   0  0  0  0  0  0  0  0  0  0  0  0
    2.7000   -3.9930   28.3910 C   0  0  0  0  0  0  0  0  0  0  0  0
    2.8490   -3.4530   29.7950 C   0  0  0  0  0  0  0  0  0  0  0  0
    3.3410   -4.2540   30.8160 C   0  0  0  0  0  0  0  0  0  0  0  0
    3.5480   -3.7370   32.0840 C   0  0  0  0  0  0  0  0  0  0  0  0
    3.2570   -2.4180   32.3510 C   0  0  0  0  0  0  0  0  0  0  0  0
    2.7600   -1.6130   31.3500 C   0  0  0  0  0  0  0  0  0  0  0  0
    2.5560   -2.1270   30.0790 C   0  0  0  0  0  0  0  0  0  0  0  0
    5.6540   -3.5150   23.2800 C   0  0  0  0  0  0  0  0  0  0  0  0
    6.3540   -4.4620   22.3250 C   0  0  0  0  0  0  0  0  0  0  0  0
    3.5680   -2.5270   26.1440 S   0  0  0  0  0  0  0  0  0  0  0  0
    8.5540   -3.3570   18.4310 S   0  0  0  0  0  0  0  0  0  0  0  0
  4  3  2  0
  4  2  1  0
  4  1  1  0
  6  1  1  0
  8  6  1  0
  8  5  1  0
  9  5  1  0
 10  9  1  0
 11 10  2  0
 11  7  1  0
 12  7  2  0
 13 12  1  0
 14 13  1  0
 15 14  2  0
 16 15  1  0
 17 16  2  0
 18 17  1  0
 19 18  2  0
 19 14  1  0
 20  5  1  0
 21  1  1  0
 21 20  1  0
 22 10  1  0
 22 12  1  0
  2 23  1  0
M  END
