
     RDKit          3D

 15 16  0  0  0  0  0  0  0  0999 V2000
   28.1940   21.8250   -2.2460 N   0  0  0  0  0  0  0  0  0  0  0  0
   27.5900   23.3670   -4.1500 C   0  0  0  0  0  0  0  0  0  0  0  0
   28.7190   22.5240   -3.4920 C   0  0  1  0  0  0  0  0  0  0  0  0
   27.8910   19.7630   -3.4700 N   0  0  0  0  0  0  0  0  0  0  0  0
   29.9720   23.4090   -3.2630 C   0  0  0  0  0  0  0  0  0  0  0  0
   27.8820   17.5080   -2.4940 N   0  0  0  0  0  0  0  0  0  0  0  0
   28.3730   22.5330   -0.9530 C   0  0  0  0  0  0  0  0  0  0  0  0
   28.0930   17.5500    0.0010 N   0  0  0  0  0  0  0  0  0  0  0  0
   28.0500   20.3890   -2.2490 C   0  0  0  0  0  0  0  0  0  0  0  0
   28.2060   18.4990    0.9910 N   0  0  0  0  0  0  0  0  0  0  0  0
   27.8200   18.3890   -3.5140 C   0  0  0  0  0  0  0  0  0  0  0  0
   28.0220   18.1400   -1.2680 C   0  0  0  0  0  0  0  0  0  0  0  0
   28.0820   16.1100    0.2910 C   0  0  0  0  0  0  0  0  0  0  0  0
   28.2190   19.7070    0.3840 C   0  0  0  0  0  0  0  0  0  0  0  0
   28.1080   19.5690   -1.0590 C   0  0  0  0  0  0  0  0  0  0  0  0
  3  2  1  1
  3  1  1  0
  5  3  1  0
  7  1  1  0
  9  4  1  0
  9  1  1  0
 10  8  1  0
 11  6  1  0
 11  4  1  0
 12  8  1  0
 12  6  1  0
 13  8  1  0
 14 10  1  0
 15 14  1  0
 15 12  1  0
 15  9  1  0
M  END
$$$$
