
     RDKit          3D

 20 22  0  0  0  0  0  0  0  0999 V2000
    8.6790    0.7470   21.2930 O   0  0  0  0  0  0  0  0  0  0  0  0
    8.3130   -0.4060   21.4940 C   0  0  0  0  0  0  0  0  0  0  0  0
    8.8510   -1.2170   22.6560 C   0  0  0  0  0  0  0  0  0  0  0  0
   10.2660   -0.8150   23.0000 C   0  0  0  0  0  0  0  0  0  0  0  0
   10.5280    0.0650   24.0420 C   0  0  0  0  0  0  0  0  0  0  0  0
   11.8210    0.4780   24.3100 C   0  0  0  0  0  0  0  0  0  0  0  0
   12.8790    0.0070   23.5440 C   0  0  0  0  0  0  0  0  0  0  0  0
   11.3280   -1.3050   22.2480 C   0  0  0  0  0  0  0  0  0  0  0  0
   12.6140   -0.9030   22.5410 C   0  0  0  0  0  0  0  0  0  0  0  0
   13.9380   -1.6330   21.6810 Cl  0  0  0  0  0  0  0  0  0  0  0  0
    7.4240   -1.0520   20.7170 N   0  0  0  0  0  0  0  0  0  0  0  0
    6.7870   -0.4560   19.6440 N   0  0  0  0  0  0  0  0  0  0  0  0
    5.6690    0.2470   19.7370 C   0  0  0  0  0  0  0  0  0  0  0  0
    5.5280    0.7700   18.4540 C   0  0  0  0  0  0  0  0  0  0  0  0
    6.5710    0.3180   17.6710 N   0  0  0  0  0  0  0  0  0  0  0  0
    7.3290   -0.4460   18.3960 N   0  0  0  0  0  0  0  0  0  0  0  0
    4.7570    0.5260   20.7450 C   0  0  0  0  0  0  0  0  0  0  0  0
    3.6980    1.3700   20.4490 C   0  0  0  0  0  0  0  0  0  0  0  0
    3.5450    1.9030   19.1700 C   0  0  0  0  0  0  0  0  0  0  0  0
    4.4560    1.6070   18.1600 C   0  0  0  0  0  0  0  0  0  0  0  0
  2  1  2  0
  3  2  1  0
  4  3  1  0
  5  4  2  0
  6  5  1  0
  7  6  2  0
  8  4  1  0
  9  8  2  0
  9  7  1  0
 10  9  1  0
 11  2  1  0
 12 11  1  0
 13 12  1  0
 14 13  2  0
 15 14  1  0
 16 15  2  0
 16 12  1  0
 17 13  1  0
 18 17  2  0
 19 18  1  0
 20 19  2  0
 20 14  1  0
M  END
