
     RDKit          3D

 26 28  0  0  0  0  0  0  0  0999 V2000
    6.7590    1.0460   16.9970 O   0  0  0  0  0  0  0  0  0  0  0  0
    6.1200    0.7430   18.0000 C   0  0  0  0  0  0  0  0  0  0  0  0
    6.3580   -0.4360   18.7640 C   0  0  0  0  0  0  0  0  0  0  0  0
    5.1790    1.6050   18.5040 N   0  0  0  0  0  0  0  0  0  0  0  0
    4.5130    1.4250   19.7080 C   0  0  0  0  0  0  0  0  0  0  0  0
    4.7970    0.2930   20.4900 C   0  0  0  0  0  0  0  0  0  0  0  0
    4.1510    0.1350   21.7190 C   0  0  0  0  0  0  0  0  0  0  0  0
    3.2020    1.0530   22.1300 C   0  0  0  0  0  0  0  0  0  0  0  0
    2.8950    2.1380   21.3380 C   0  0  0  0  0  0  0  0  0  0  0  0
    3.5510    2.3410   20.1340 C   0  0  0  0  0  0  0  0  0  0  0  0
    5.7420   -0.6780   19.9490 C   0  0  0  0  0  0  0  0  0  0  0  0
    5.9260   -1.9990   20.6070 C   0  0  0  0  0  0  0  0  0  0  0  0
    5.3220   -2.9750   20.1920 O   0  0  0  0  0  0  0  0  0  0  0  0
    6.7920   -2.1120   21.6830 N   0  0  0  0  0  0  0  0  0  0  0  0
    6.9630   -3.3710   22.3920 C   0  0  0  0  0  0  0  0  0  0  0  0
    7.6460   -1.0030   22.1080 C   0  0  0  0  0  0  0  0  0  0  0  0
    9.0680   -1.2190   21.6710 C   0  0  0  0  0  0  0  0  0  0  0  0
    9.8390   -1.2800   22.8780 O   0  0  0  0  0  0  0  0  0  0  0  0
   11.1190   -0.8110   22.8260 C   0  0  0  0  0  0  0  0  0  0  0  0
   11.3320    0.4750   23.3630 C   0  0  0  0  0  0  0  0  0  0  0  0
   10.2060    1.1150   23.8080 O   0  0  0  0  0  0  0  0  0  0  0  0
   10.3660    2.3370   24.5270 C   0  0  0  0  0  0  0  0  0  0  0  0
   12.1750   -1.5160   22.2750 C   0  0  0  0  0  0  0  0  0  0  0  0
   13.4350   -0.9460   22.2500 C   0  0  0  0  0  0  0  0  0  0  0  0
   13.6510    0.3050   22.7950 C   0  0  0  0  0  0  0  0  0  0  0  0
   12.6090    1.0180   23.3620 C   0  0  0  0  0  0  0  0  0  0  0  0
  2  1  2  0
  3  2  1  0
  4  2  1  0
  5  4  1  0
  6  5  2  0
  7  6  1  0
  8  7  2  0
  9  8  1  0
 10  9  2  0
 10  5  1  0
 11  6  1  0
 11  3  2  0
 12 11  1  0
 13 12  2  0
 14 12  1  0
 15 14  1  0
 16 14  1  0
 17 16  1  0
 18 17  1  0
 19 18  1  0
 20 19  2  0
 21 20  1  0
 22 21  1  0
 23 19  1  0
 24 23  2  0
 25 24  1  0
 26 25  2  0
 26 20  1  0
M  END
