
     RDKit          3D

 24 27  0  0  0  0  0  0  0  0999 V2000
    9.0820    0.6770   21.1750 O   0  0  0  0  0  0  0  0  0  0  0  0
    8.5500   -0.3960   21.4480 C   0  0  0  0  0  0  0  0  0  0  0  0
    9.0120   -1.2570   22.6250 C   0  0  2  0  0  0  0  0  0  0  0  0
    8.0710   -0.9860   23.8480 C   0  0  0  0  0  0  0  0  0  0  0  0
    8.7860   -0.4190   25.0670 C   0  0  0  0  0  0  0  0  0  0  0  0
    9.8290    0.5240   24.6760 N   0  0  0  0  0  0  0  0  0  0  0  0
   10.4660   -0.8840   22.8460 C   0  0  0  0  0  0  0  0  0  0  0  0
   10.7870    0.0810   23.8100 C   0  0  0  0  0  0  0  0  0  0  0  0
   12.0960    0.5540   23.9110 C   0  0  0  0  0  0  0  0  0  0  0  0
   13.0870    0.0480   23.0880 C   0  0  0  0  0  0  0  0  0  0  0  0
   11.4790   -1.4100   22.0480 C   0  0  0  0  0  0  0  0  0  0  0  0
   12.7700   -0.9490   22.1900 C   0  0  0  0  0  0  0  0  0  0  0  0
   14.0420   -1.7050   21.2670 Cl  0  0  0  0  0  0  0  0  0  0  0  0
    7.4860   -0.8880   20.7760 N   0  0  0  0  0  0  0  0  0  0  0  0
    6.7330   -0.2390   19.7820 C   0  0  0  0  0  0  0  0  0  0  0  0
    5.6100    0.5420   20.1900 C   0  0  0  0  0  0  0  0  0  0  0  0
    5.1450    0.6180   21.5280 C   0  0  0  0  0  0  0  0  0  0  0  0
    4.0570    1.3790   21.8510 C   0  0  0  0  0  0  0  0  0  0  0  0
    3.3770    2.0900   20.8750 C   0  0  0  0  0  0  0  0  0  0  0  0
    3.7880    2.0560   19.5750 C   0  0  0  0  0  0  0  0  0  0  0  0
    4.9150    1.2860   19.1960 C   0  0  0  0  0  0  0  0  0  0  0  0
    5.3940    1.2110   17.8660 C   0  0  0  0  0  0  0  0  0  0  0  0
    6.4390    0.4830   17.4880 N   0  0  0  0  0  0  0  0  0  0  0  0
    7.0700   -0.2250   18.4300 C   0  0  0  0  0  0  0  0  0  0  0  0
  2  1  2  0
  3  2  1  6
  4  3  1  0
  5  4  1  0
  6  5  1  0
  7  3  1  0
  8  7  2  0
  8  6  1  0
  9  8  1  0
 10  9  2  0
 11  7  1  0
 12 11  2  0
 12 10  1  0
 13 12  1  0
 14  2  1  0
 15 14  1  0
 16 15  1  0
 17 16  2  0
 18 17  1  0
 19 18  2  0
 20 19  1  0
 21 20  2  0
 21 16  1  0
 22 21  1  0
 23 22  2  0
 24 23  1  0
 24 15  2  0
M  END
