
     RDKit          3D

 21 22  0  0  0  0  0  0  0  0999 V2000
    8.6460   -1.9310   23.1990 N   0  0  0  0  0  0  0  0  0  0  0  0
    7.2910   -1.9390   23.7450 C   0  0  0  0  0  0  0  0  0  0  0  0
    9.0400    1.0990   21.1500 O   0  0  0  0  0  0  0  0  0  0  0  0
   13.9650   -1.3680   21.1590 Cl  0  0  0  0  0  0  0  0  0  0  0  0
    9.5270   -2.6850   24.0940 C   0  0  0  0  0  0  0  0  0  0  0  0
    7.4680   -0.5360   21.0520 N   0  0  0  0  0  0  0  0  0  0  0  0
    9.1000   -0.5450   22.8990 C   0  0  2  0  0  0  0  0  0  0  0  0
    6.5010    0.5620   17.6650 N   0  0  0  0  0  0  0  0  0  0  0  0
    8.5390    0.0790   21.6080 C   0  0  0  0  0  0  0  0  0  0  0  0
    6.6880   -0.0100   19.9960 C   0  0  2  0  0  0  0  0  0  0  0  0
    7.1320   -0.0430   18.6750 C   0  0  0  0  0  0  0  0  0  0  0  0
    5.3620    1.2060   17.9510 C   0  0  0  0  0  0  0  0  0  0  0  0
    4.8230    1.2760   19.2210 C   0  0  0  0  0  0  0  0  0  0  0  0
    5.4830    0.6640   20.2820 C   0  0  0  0  0  0  0  0  0  0  0  0
    4.9240    0.7410   21.6800 C   0  0  0  0  0  0  0  0  0  0  0  0
   10.6010   -0.3200   23.0490 C   0  0  2  0  0  0  0  0  0  0  0  0
   11.0730    0.6180   23.9590 C   0  0  0  0  0  0  0  0  0  0  0  0
   12.4070    0.9940   23.9620 C   0  0  0  0  0  0  0  0  0  0  0  0
   13.2980    0.4170   23.0700 C   0  0  0  0  0  0  0  0  0  0  0  0
   12.8340   -0.5500   22.2020 C   0  0  0  0  0  0  0  0  0  0  0  0
   11.5010   -0.9190   22.1720 C   0  0  0  0  0  0  0  0  0  0  0  0
  2  1  1  0
  5  1  1  0
  7  1  1  0
  9  6  1  0
  9  3  1  0
  7  9  1  6
 10  6  1  1
 11 10  1  0
 11  8  1  0
 12  8  1  0
 13 12  1  0
 14 13  1  0
 14 10  1  0
 15 14  1  0
 16  7  1  0
 16 17  1  6
 18 17  1  0
 19 18  1  0
 20  4  1  0
 20 19  1  0
 21 16  1  0
 21 20  1  0
M  END
$$$$
