
     RDKit          3D

 23 26  0  0  0  0  0  0  0  0999 V2000
    9.6220    1.5590   21.2200 O   0  0  0  0  0  0  0  0  0  0  0  0
    9.2230    0.4950   21.6480 C   0  0  0  0  0  0  0  0  0  0  0  0
    9.8300   -0.3210   22.7820 C   0  0  2  0  0  0  0  0  0  0  0  0
   11.3430   -0.1590   22.8510 C   0  0  2  0  0  0  0  0  0  0  0  0
   11.9290    0.7540   23.7190 C   0  0  0  0  0  0  0  0  0  0  0  0
   13.2960    0.9920   23.6770 C   0  0  0  0  0  0  0  0  0  0  0  0
   14.0960    0.3280   22.7570 C   0  0  0  0  0  0  0  0  0  0  0  0
   12.1530   -0.8710   21.9740 C   0  0  0  0  0  0  0  0  0  0  0  0
   13.5080   -0.6030   21.9230 C   0  0  0  0  0  0  0  0  0  0  0  0
   14.4870   -1.4290   20.7390 Cl  0  0  0  0  0  0  0  0  0  0  0  0
    8.1490   -0.1990   21.1710 N   0  0  0  0  0  0  0  0  0  0  0  0
    7.9690   -1.4980   21.8320 C   0  0  0  0  0  0  0  0  0  0  0  0
    9.3400   -1.7570   22.4450 C   0  0  0  0  0  0  0  0  0  0  0  0
    7.2630    0.2510   20.1320 C   0  0  0  0  0  0  0  0  0  0  0  0
    6.1090    1.0410   20.4230 C   0  0  0  0  0  0  0  0  0  0  0  0
    5.7400    1.4550   21.7330 C   0  0  0  0  0  0  0  0  0  0  0  0
    4.6540    2.2590   21.9350 C   0  0  0  0  0  0  0  0  0  0  0  0
    3.8840    2.6940   20.8620 C   0  0  0  0  0  0  0  0  0  0  0  0
    4.1870    2.3070   19.5860 C   0  0  0  0  0  0  0  0  0  0  0  0
    5.2980    1.4650   19.3320 C   0  0  0  0  0  0  0  0  0  0  0  0
    5.6740    1.0490   18.0290 C   0  0  0  0  0  0  0  0  0  0  0  0
    6.7470    0.3190   17.7610 N   0  0  0  0  0  0  0  0  0  0  0  0
    7.5090   -0.0550   18.7950 C   0  0  0  0  0  0  0  0  0  0  0  0
  2  1  1  0
  3  2  1  0
  4  3  1  0
  4  5  1  6
  6  5  1  0
  7  6  1  0
  8  4  1  0
  9  8  1  0
  9  7  1  0
 10  9  1  0
 11  2  1  0
 12 11  1  0
 13 12  1  0
  3 13  1  6
 14 11  1  0
 15 14  1  0
 16 15  1  0
 17 16  1  0
 18 17  1  0
 19 18  1  0
 20 19  1  0
 20 15  1  0
 21 20  1  0
 22 21  1  0
 23 22  1  0
 23 14  1  0
M  END
$$$$
