
     RDKit          3D

 20 21  0  0  0  0  0  0  0  0999 V2000
   13.9290   -1.6590   21.2300 Cl  0  0  0  0  0  0  0  0  0  0  0  0
   12.8070   -0.7850   22.2280 C   0  0  0  0  0  0  0  0  0  0  0  0
   13.2860    0.1330   23.1360 C   0  0  0  0  0  0  0  0  0  0  0  0
   12.3910    0.7360   24.0070 C   0  0  0  0  0  0  0  0  0  0  0  0
   11.0380    0.4440   23.9300 C   0  0  0  0  0  0  0  0  0  0  0  0
   11.4610   -1.0750   22.1290 C   0  0  0  0  0  0  0  0  0  0  0  0
   10.5560   -0.4370   22.9710 C   0  0  0  0  0  0  0  0  0  0  0  0
    9.0660   -0.5960   22.7290 C   0  0  2  0  0  0  0  0  0  0  0  0
    8.6270   -2.0680   22.7030 C   0  0  0  0  0  0  0  0  0  0  0  0
    8.6960   -2.7220   24.0660 C   0  0  0  0  0  0  0  0  0  0  0  0
    8.6890    0.1940   21.4710 C   0  0  0  0  0  0  0  0  0  0  0  0
    9.1750    1.2950   21.2310 O   0  0  0  0  0  0  0  0  0  0  0  0
    7.8120   -0.4090   20.6370 N   0  0  0  0  0  0  0  0  0  0  0  0
    6.7250   -0.0100   19.8370 C   0  0  0  0  0  0  0  0  0  0  0  0
    5.7110    0.8560   20.3020 C   0  0  0  0  0  0  0  0  0  0  0  0
    5.3600    0.9700   21.7640 C   0  0  0  0  0  0  0  0  0  0  0  0
    4.9610    1.5290   19.3430 C   0  0  0  0  0  0  0  0  0  0  0  0
    5.1670    1.3850   18.0280 N   0  0  0  0  0  0  0  0  0  0  0  0
    6.1420    0.5370   17.5860 N   0  0  0  0  0  0  0  0  0  0  0  0
    6.8590   -0.1380   18.4580 C   0  0  0  0  0  0  0  0  0  0  0  0
  2  1  1  0
  3  2  2  0
  4  3  1  0
  5  4  2  0
  6  2  1  0
  7  6  2  0
  7  5  1  0
  8  7  1  0
  8  9  1  6
 10  9  1  0
 11  8  1  0
 12 11  2  0
 13 11  1  0
 14 13  1  0
 15 14  2  0
 16 15  1  0
 17 15  1  0
 18 17  2  0
 19 18  1  0
 20 19  2  0
 20 14  1  0
M  END
