
     RDKit          3D

 25 27  0  0  0  0  0  0  0  0999 V2000
    7.9120   -2.1930   24.3540 N   0  0  0  0  0  0  0  0  0  0  0  0
   11.9530   -1.3410   22.7860 C   0  0  0  0  0  0  0  0  0  0  0  0
    4.7970   -0.1710   25.4570 C   0  0  0  0  0  0  0  0  0  0  0  0
    6.4690   -4.3610   20.3260 C   0  0  0  0  0  0  0  0  0  0  0  0
    5.6500   -5.0860   19.7970 O   0  0  0  0  0  0  0  0  0  0  0  0
   11.6080   -2.3230   25.5230 C   0  0  0  0  0  0  0  0  0  0  0  0
    5.6940   -0.9190   24.4660 C   0  0  0  0  0  0  0  0  0  0  0  0
    6.5550   -5.8080   22.3080 C   0  0  0  0  0  0  0  0  0  0  0  0
    9.1160   -2.6520   25.1750 C   0  0  0  0  0  0  0  0  0  0  0  0
    6.8010    0.7320   26.6320 C   0  0  0  0  0  0  0  0  0  0  0  0
    7.7220   -0.0220   25.6620 C   0  0  0  0  0  0  0  0  0  0  0  0
   13.0690   -1.1670   23.8150 C   0  0  0  0  0  0  0  0  0  0  0  0
    7.2510   -3.2920   23.6120 C   0  0  1  0  0  0  0  0  0  0  0  0
    7.8680   -3.7180   22.2880 C   0  0  0  0  0  0  0  0  0  0  0  0
   12.9990   -2.2510   24.8850 C   0  0  0  0  0  0  0  0  0  0  0  0
   10.5760   -1.3980   23.4540 C   0  0  0  0  0  0  0  0  0  0  0  0
    7.0060   -3.1600   19.5740 C   0  0  0  0  0  0  0  0  0  0  0  0
    6.8050   -4.5020   24.4390 C   0  0  0  0  0  0  0  0  0  0  0  0
    5.4760    1.0790   25.9780 C   0  0  2  0  0  0  0  0  0  0  0  0
    6.9450   -4.6000   21.5660 N   0  0  0  0  0  0  0  0  0  0  0  0
    4.6250    1.7510   26.8990 O   0  0  0  0  0  0  0  0  0  0  0  0
   10.4930   -2.5150   24.4920 C   0  0  1  0  0  0  0  0  0  0  0  0
    7.0350   -1.2750   25.1120 C   0  0  2  0  0  0  0  0  0  0  0  0
    5.8980   -5.4280   23.6270 C   0  0  0  0  0  0  0  0  0  0  0  0
    8.5750   -3.5670   18.7680 S   0  0  0  0  0  0  0  0  0  0  0  0
  5  4  1  0
  7  3  1  0
  9  1  1  0
 11 10  1  0
 12  2  1  0
 13  1  1  1
 14 13  1  0
 15 12  1  0
 15  6  1  0
 16  2  1  0
 17  4  1  0
 18 13  1  0
 19  3  1  0
 19 10  1  0
 20  8  1  0
 20  4  1  0
 20 14  1  0
 19 21  1  1
 22 16  1  0
 22  9  1  1
 22  6  1  0
 23 11  1  0
 23  7  1  0
 23  1  1  6
 24  8  1  0
 24 18  1  0
 17 25  1  0
M  END
$$$$
