
     RDKit          3D

 20 21  0  0  0  0  0  0  0  0999 V2000
   14.3360   -1.9000   20.4280 N   0  0  0  0  0  0  0  0  0  0  0  0
   13.6320   -1.4840   21.2260 C   0  0  0  0  0  0  0  0  0  0  0  0
   12.7050   -0.9780   22.2070 C   0  0  1  0  0  0  0  0  0  0  0  0
   13.1380   -0.0980   23.1970 C   0  0  0  0  0  0  0  0  0  0  0  0
   12.2190    0.4500   24.0790 C   0  0  0  0  0  0  0  0  0  0  0  0
   10.8700    0.1510   23.9530 C   0  0  0  0  0  0  0  0  0  0  0  0
   11.3550   -1.3060   22.1090 C   0  0  0  0  0  0  0  0  0  0  0  0
   10.4250   -0.7280   22.9680 C   0  0  0  0  0  0  0  0  0  0  0  0
    8.9450   -1.0460   22.7910 C   0  0  1  0  0  0  0  0  0  0  0  0
    8.1230   -0.8420   24.0700 C   0  0  0  0  0  0  0  0  0  0  0  0
    8.4610   -0.2040   21.6070 C   0  0  0  0  0  0  0  0  0  0  0  0
    9.1110    0.7450   21.1790 O   0  0  0  0  0  0  0  0  0  0  0  0
    7.2790   -0.5770   21.0790 N   0  0  0  0  0  0  0  0  0  0  0  0
    6.6630    0.0980   20.0110 C   0  0  2  0  0  0  0  0  0  0  0  0
    5.5040    0.8580   20.2350 C   0  0  1  0  0  0  0  0  0  0  0  0
    4.9940    1.1530   21.6240 C   0  0  0  0  0  0  0  0  0  0  0  0
    4.8660    1.3820   19.1210 C   0  0  0  0  0  0  0  0  0  0  0  0
    5.3990    1.1640   17.8660 C   0  0  0  0  0  0  0  0  0  0  0  0
    6.5340    0.4840   17.6500 N   0  0  0  0  0  0  0  0  0  0  0  0
    7.1510   -0.0360   18.7120 C   0  0  0  0  0  0  0  0  0  0  0  0
  2  1  1  0
  3  2  1  6
  4  3  1  0
  5  4  1  0
  6  5  1  0
  7  3  1  0
  8  6  1  0
  8  7  1  0
  9  8  1  0
  9 10  1  1
 11  9  1  0
 12 11  1  0
 13 11  1  0
 14 13  1  6
 15 14  1  0
 15 16  1  1
 17 15  1  0
 18 17  1  0
 19 18  1  0
 20 19  1  0
 20 14  1  0
M  END
$$$$
