
     RDKit          3D

 23 25  0  0  0  0  0  0  0  0999 V2000
    5.7430   -4.5430   19.8640 O   0  0  0  0  0  0  0  0  0  0  0  0
    6.5000   -3.9020   20.5790 C   0  0  0  0  0  0  0  0  0  0  0  0
    6.1330   -3.0170   21.5360 N   0  0  0  0  0  0  0  0  0  0  0  0
    8.0170   -3.9700   20.5090 C   0  0  2  0  0  0  0  0  0  0  0  0
    8.4240   -5.2000   21.0890 O   0  0  0  0  0  0  0  0  0  0  0  0
    8.3920   -2.8900   21.5010 C   0  0  0  0  0  0  0  0  0  0  0  0
    7.2300   -2.4090   22.1000 C   0  0  0  0  0  0  0  0  0  0  0  0
    9.6270   -2.3740   21.8760 C   0  0  0  0  0  0  0  0  0  0  0  0
    9.7020   -1.4040   22.8620 C   0  0  0  0  0  0  0  0  0  0  0  0
    8.5490   -0.9300   23.4690 C   0  0  0  0  0  0  0  0  0  0  0  0
    7.2950   -1.4140   23.0940 C   0  0  0  0  0  0  0  0  0  0  0  0
    6.0980   -0.8380   23.7620 C   0  0  0  0  0  0  0  0  0  0  0  0
    4.9860   -1.2920   23.6790 O   0  0  0  0  0  0  0  0  0  0  0  0
    6.4130    0.2270   24.5060 O   0  0  0  0  0  0  0  0  0  0  0  0
    5.4810    0.5660   25.5750 C   0  0  0  0  0  0  0  0  0  0  0  0
    6.3020    0.8640   26.7960 C   0  0  0  0  0  0  0  0  0  0  0  0
    5.8460    1.7520   27.7650 C   0  0  0  0  0  0  0  0  0  0  0  0
    7.5680    0.3120   26.9400 C   0  0  0  0  0  0  0  0  0  0  0  0
    8.3640    0.6500   28.0210 C   0  0  0  0  0  0  0  0  0  0  0  0
    7.9000    1.5510   28.9640 C   0  0  0  0  0  0  0  0  0  0  0  0
    6.6390    2.1220   28.8450 C   0  0  0  0  0  0  0  0  0  0  0  0
    6.1700    3.1710   29.8230 C   0  0  0  0  0  0  0  0  0  0  0  0
    8.4900   -3.5930   18.7680 S   0  0  0  0  0  0  0  0  0  0  0  0
  2  1  2  0
  3  2  1  0
  4  2  1  0
  4  5  1  1
  6  4  1  0
  7  6  2  0
  7  3  1  0
  8  6  1  0
  9  8  2  0
 10  9  1  0
 11 10  2  0
 11  7  1  0
 12 11  1  0
 13 12  2  0
 14 12  1  0
 15 14  1  0
 16 15  1  0
 17 16  2  0
 18 16  1  0
 19 18  2  0
 20 19  1  0
 21 20  2  0
 21 17  1  0
 22 21  1  0
  4 23  1  0
M  END
