
     RDKit          3D

 21 23  0  0  0  0  0  0  0  0999 V2000
    6.4630    0.6560   17.3860 N   0  0  0  0  0  0  0  0  0  0  0  0
    4.8150    0.9940   21.3600 C   0  0  0  0  0  0  0  0  0  0  0  0
    8.8290    0.6430   21.1070 O   0  0  0  0  0  0  0  0  0  0  0  0
   13.9680   -1.6810   20.8380 Cl  0  0  0  0  0  0  0  0  0  0  0  0
    5.3340    0.7820   19.9600 C   0  0  1  0  0  0  0  0  0  0  0  0
    7.0590   -0.7390   20.7480 N   0  0  0  0  0  0  0  0  0  0  0  0
    4.7710    1.4610   18.8860 C   0  0  0  0  0  0  0  0  0  0  0  0
    9.5570   -0.5950   23.3840 N   0  0  0  0  0  0  0  0  0  0  0  0
    5.3630    1.3780   17.6390 C   0  0  0  0  0  0  0  0  0  0  0  0
    6.9930   -0.0320   18.4040 C   0  0  0  0  0  0  0  0  0  0  0  0
    6.4690   -0.0050   19.6990 C   0  0  0  0  0  0  0  0  0  0  0  0
    8.1710   -0.3570   21.3970 C   0  0  0  0  0  0  0  0  0  0  0  0
    8.5350   -1.2460   22.5740 C   0  0  0  0  0  0  0  0  0  0  0  0
    9.3160    0.1880   24.4890 C   0  0  0  0  0  0  0  0  0  0  0  0
   10.4620    0.7640   24.9140 C   0  0  0  0  0  0  0  0  0  0  0  0
   11.5040    0.3300   24.0330 C   0  0  0  0  0  0  0  0  0  0  0  0
   12.8670    0.6010   23.9140 C   0  0  0  0  0  0  0  0  0  0  0  0
   13.6150    0.0120   22.9100 C   0  0  0  0  0  0  0  0  0  0  0  0
   13.0010   -0.8670   22.0300 C   0  0  0  0  0  0  0  0  0  0  0  0
   11.6470   -1.1460   22.0940 C   0  0  0  0  0  0  0  0  0  0  0  0
   10.9100   -0.5340   23.0970 C   0  0  0  0  0  0  0  0  0  0  0  0
  5  2  1  1
  7  5  1  0
  9  7  1  0
  9  1  1  0
 10  1  1  0
 11  5  1  0
 11 10  1  0
 11  6  1  0
 12  6  1  0
 12  3  1  0
 13 12  1  0
 13  8  1  0
 14  8  1  0
 15 14  1  0
 16 15  1  0
 17 16  1  0
 18 17  1  0
 19  4  1  0
 19 18  1  0
 20 19  1  0
 21  8  1  0
 21 20  1  0
 21 16  1  0
M  END
$$$$
