
     RDKit          3D

 20 22  0  0  0  0  0  0  0  0999 V2000
   13.3540   -2.8870   26.0990 C   0  0  0  0  0  0  0  0  0  0  0  0
    9.0540    0.9620   21.3930 O   0  0  0  0  0  0  0  0  0  0  0  0
   13.4180   -1.6620   25.4750 C   0  0  0  0  0  0  0  0  0  0  0  0
    9.4890   -2.7670   22.9900 O   0  0  0  0  0  0  0  0  0  0  0  0
   12.4410   -1.2880   24.5730 C   0  0  0  0  0  0  0  0  0  0  0  0
    5.7970   -4.4960   20.6380 O   0  0  0  0  0  0  0  0  0  0  0  0
   11.3840   -2.1490   24.2790 C   0  0  0  0  0  0  0  0  0  0  0  0
    5.3510   -2.0440   19.4580 O   0  0  0  0  0  0  0  0  0  0  0  0
   11.3330   -3.3840   24.9230 C   0  0  0  0  0  0  0  0  0  0  0  0
    6.9620    0.0570   20.0350 O   0  0  0  0  0  0  0  0  0  0  0  0
   12.3140   -3.7460   25.8250 C   0  0  0  0  0  0  0  0  0  0  0  0
   10.3380   -1.7580   23.3230 C   0  0  0  0  0  0  0  0  0  0  0  0
   10.2110   -0.5230   22.8030 C   0  0  0  0  0  0  0  0  0  0  0  0
    9.1720   -0.1860   21.8720 C   0  0  0  0  0  0  0  0  0  0  0  0
    8.2740   -1.2790   21.5280 C   0  0  0  0  0  0  0  0  0  0  0  0
    7.1940   -1.1360   20.6240 C   0  0  0  0  0  0  0  0  0  0  0  0
    6.3830   -2.2110   20.3360 C   0  0  0  0  0  0  0  0  0  0  0  0
    6.6110   -3.4570   20.9390 C   0  0  0  0  0  0  0  0  0  0  0  0
    7.6600   -3.6250   21.8280 C   0  0  0  0  0  0  0  0  0  0  0  0
    8.4630   -2.5370   22.1010 C   0  0  0  0  0  0  0  0  0  0  0  0
  3  1  2  0
  5  3  1  0
  7  5  2  0
  9  7  1  0
 11  9  2  0
 11  1  1  0
 12  4  1  0
 12  7  1  0
 13 12  2  0
 14  2  2  0
 14 13  1  0
 15 14  1  0
 16 15  1  0
 16 10  1  0
 17  8  1  0
 17 16  2  0
 18 17  1  0
 18  6  1  0
 19 18  2  0
 20 15  2  0
 20 19  1  0
 20  4  1  0
M  END
$$$$
