
     RDKit          3D

 22 24  0  0  0  0  0  0  0  0999 V2000
    6.3510    0.7110   17.4370 N   0  0  0  0  0  0  0  0  0  0  0  0
    8.5860    0.1190   21.2510 C   0  0  0  0  0  0  0  0  0  0  0  0
    8.7840    1.3060   20.9920 O   0  0  0  0  0  0  0  0  0  0  0  0
    7.3010   -0.5830   20.8560 C   0  0  0  0  0  0  0  0  0  0  0  0
    9.4740   -0.6750   21.8900 N   0  0  0  0  0  0  0  0  0  0  0  0
   12.6280    2.4970   23.6500 O   0  0  0  0  0  0  0  0  0  0  0  0
    6.5460    0.1420   19.7670 C   0  0  0  0  0  0  0  0  0  0  0  0
   13.0060    4.0530   21.8130 N   0  0  0  0  0  0  0  0  0  0  0  0
   13.4560    6.3660   21.8150 O   0  0  0  0  0  0  0  0  0  0  0  0
    5.4230    0.9110   20.0450 C   0  0  0  0  0  0  0  0  0  0  0  0
    4.7710    1.5780   19.0220 C   0  0  0  0  0  0  0  0  0  0  0  0
    5.2680    1.4470   17.7380 C   0  0  0  0  0  0  0  0  0  0  0  0
    6.9640    0.0780   18.4470 C   0  0  0  0  0  0  0  0  0  0  0  0
   10.7890   -0.3590   22.2950 C   0  0  1  0  0  0  0  0  0  0  0  0
   11.8240   -1.2630   22.0950 C   0  0  0  0  0  0  0  0  0  0  0  0
   13.1280   -0.8950   22.3880 C   0  0  0  0  0  0  0  0  0  0  0  0
   13.4060    0.3640   22.9000 C   0  0  0  0  0  0  0  0  0  0  0  0
   12.3640    1.2520   23.1160 C   0  0  0  0  0  0  0  0  0  0  0  0
   12.0860    3.5880   22.8820 C   0  0  2  0  0  0  0  0  0  0  0  0
   12.4150    4.8910   23.6180 C   0  0  0  0  0  0  0  0  0  0  0  0
   13.0630    5.3060   22.3060 C   0  0  0  0  0  0  0  0  0  0  0  0
   11.0560    0.8990   22.8220 C   0  0  0  0  0  0  0  0  0  0  0  0
  3  2  1  0
  4  2  1  0
  5  2  1  0
  7  4  1  0
 10  7  1  0
 11 10  1  0
 12 11  1  0
 12  1  1  0
 13  7  1  0
 13  1  1  0
 14  5  1  6
 15 14  1  0
 16 15  1  0
 17 16  1  0
 18 17  1  0
 18  6  1  0
 19  8  1  0
 19  6  1  1
 20 19  1  0
 21 20  1  0
 21  8  1  0
 21  9  1  0
 22 14  1  0
 22 18  1  0
M  END
$$$$
