
     RDKit          3D

 22 25  0  0  0  0  0  0  0  0999 V2000
    5.7560    0.6570   19.3560 N   0  0  0  0  0  0  0  0  0  0  0  0
    7.3400   -0.6010   20.6590 N   0  0  0  0  0  0  0  0  0  0  0  0
    6.7730    0.6540   17.4040 N   0  0  0  0  0  0  0  0  0  0  0  0
    5.3400    1.9860   21.4660 C   0  0  0  0  0  0  0  0  0  0  0  0
   12.8660    0.0450   23.4140 C   0  0  0  0  0  0  0  0  0  0  0  0
    8.9800    0.9140   21.0170 O   0  0  0  0  0  0  0  0  0  0  0  0
    6.9340   -0.0290   19.4690 C   0  0  0  0  0  0  0  0  0  0  0  0
   11.8850    0.6520   24.1800 C   0  0  0  0  0  0  0  0  0  0  0  0
    8.7000   -0.8280   22.6740 C   0  0  2  0  0  0  0  0  0  0  0  0
    7.7830   -0.2940   23.7920 C   0  0  0  0  0  0  0  0  0  0  0  0
    8.2770    1.0540   24.2560 C   0  0  0  0  0  0  0  0  0  0  0  0
    4.8420    1.0150   20.4560 C   0  0  1  0  0  0  0  0  0  0  0  0
   10.1690   -0.5600   22.9550 C   0  0  0  0  0  0  0  0  0  0  0  0
    5.7100    1.0430   18.0450 C   0  0  0  0  0  0  0  0  0  0  0  0
    4.2860    2.3940   20.4900 C   0  0  0  0  0  0  0  0  0  0  0  0
   11.1740   -1.1720   22.2060 C   0  0  0  0  0  0  0  0  0  0  0  0
   12.4980   -0.8640   22.4470 C   0  0  2  0  0  0  0  0  0  0  0  0
    7.5720   -0.0280   18.3120 N   0  0  0  0  0  0  0  0  0  0  0  0
    9.6390    0.9950   24.7530 O   0  0  0  0  0  0  0  0  0  0  0  0
    8.3730   -0.0890   21.3760 C   0  0  0  0  0  0  0  0  0  0  0  0
   10.5480    0.3500   23.9480 C   0  0  0  0  0  0  0  0  0  0  0  0
   13.7330   -1.6970   21.5500 Cl  0  0  0  0  0  0  0  0  0  0  0  0
  7  2  1  0
  7  1  1  0
  8  5  1  0
 10  9  1  0
 11 10  1  0
 12  4  1  0
 12  1  1  6
 13  9  1  0
 14  3  1  0
 14  1  1  0
 15 12  1  0
 15  4  1  0
 16 13  1  0
 17 16  1  0
 17  5  1  0
 18  7  1  0
 18  3  1  0
 19 11  1  0
 20  6  1  0
 20  2  1  0
  9 20  1  6
 21 19  1  0
 21 13  1  0
 21  8  1  0
 17 22  1  1
M  END
$$$$
