
     RDKit          3D

 15 16  0  0  0  0  0  0  0  0999 V2000
    6.4510    0.4120   17.8780 N   0  0  0  0  0  0  0  0  0  0  0  0
    5.5950    0.7890   22.0920 C   0  0  0  0  0  0  0  0  0  0  0  0
    9.5250    1.0760   21.1700 O   0  0  0  0  0  0  0  0  0  0  0  0
    5.9080    0.6490   20.6240 C   0  0  0  0  0  0  0  0  0  0  0  0
    7.9660   -0.5820   21.0970 N   0  0  0  0  0  0  0  0  0  0  0  0
    5.0590    1.1890   19.6650 C   0  0  0  0  0  0  0  0  0  0  0  0
    5.3640    1.0490   18.3260 C   0  0  0  0  0  0  0  0  0  0  0  0
    7.2760   -0.1100   18.7910 C   0  0  0  0  0  0  0  0  0  0  0  0
    7.0570   -0.0230   20.1670 C   0  0  0  0  0  0  0  0  0  0  0  0
    9.1670   -0.0660   21.4400 C   0  0  1  0  0  0  0  0  0  0  0  0
   10.0980   -1.0460   22.1270 C   0  0  2  0  0  0  0  0  0  0  0  0
   10.5120   -0.8060   23.5590 C   0  0  0  0  0  0  0  0  0  0  0  0
   11.4470   -0.4390   22.4530 C   0  0  1  0  0  0  0  0  0  0  0  0
   12.6470   -1.2750   22.0950 C   0  0  0  0  0  0  0  0  0  0  0  0
   13.5190   -0.4920   21.3320 F   0  0  0  0  0  0  0  0  0  0  0  0
  4  2  1  0
  6  4  1  0
  7  6  1  0
  7  1  1  0
  8  1  1  0
  9  8  1  0
  9  5  1  0
  9  4  1  0
 10  5  1  0
 10  3  1  6
 11 10  1  0
 11 12  1  1
 13 12  1  0
 13 11  1  0
 13 14  1  1
 15 14  1  0
M  END
$$$$
