
     RDKit          3D

  8  7  0  0  0  0  0  0  0  0999 V2000
   -0.5620    5.1440   -5.6860 C   0  0  0  0  0  0  0  0  0  0  0  0
   -1.2660    5.1740   -4.7060 O   0  0  0  0  0  0  0  0  0  0  0  0
   -1.3470    5.3630   -6.9950 C   0  0  2  0  0  0  0  0  0  0  0  0
   -2.2990    4.1310   -7.0730 C   0  0  0  0  0  0  0  0  0  0  0  0
   -3.2080    4.1900   -8.2190 C   0  0  0  0  0  0  0  0  0  0  0  0
   -4.3370    2.7080   -8.1990 S   0  0  0  0  0  0  0  0  0  0  0  0
   -6.0080    3.4250   -8.0400 C   0  0  0  0  0  0  0  0  0  0  0  0
   -0.4380    5.4570   -8.1900 N   0  0  0  0  0  0  0  0  0  0  0  0
  2  1  1  0
  3  1  1  0
  4  3  1  0
  5  4  1  0
  6  5  1  0
  7  6  1  0
  3  8  1  6
M  END
$$$$
