
     RDKit          3D

 18 19  0  0  0  0  0  0  0  0999 V2000
    5.1360    1.3620   17.8020 N   0  0  0  0  0  0  0  0  0  0  0  0
    4.8030    1.1540   21.5330 C   0  0  0  0  0  0  0  0  0  0  0  0
    9.0640    0.7600   21.0520 O   0  0  0  0  0  0  0  0  0  0  0  0
   13.8430   -1.7520   21.3430 Cl  0  0  0  0  0  0  0  0  0  0  0  0
    5.3320    0.9240   20.1400 C   0  0  0  0  0  0  0  0  0  0  0  0
    6.2640    0.6310   17.5630 N   0  0  0  0  0  0  0  0  0  0  0  0
    4.6910    1.4970   19.0460 C   0  0  0  0  0  0  0  0  0  0  0  0
    7.1570   -0.4780   20.9790 N   0  0  0  0  0  0  0  0  0  0  0  0
    6.9020    0.0620   18.5740 C   0  0  0  0  0  0  0  0  0  0  0  0
    6.4900    0.1580   19.9010 C   0  0  0  0  0  0  0  0  0  0  0  0
    8.3730   -0.1620   21.4780 C   0  0  0  0  0  0  0  0  0  0  0  0
    8.8380   -1.0430   22.6220 C   0  0  0  0  0  0  0  0  0  0  0  0
   10.2980   -0.7900   22.9260 C   0  0  2  0  0  0  0  0  0  0  0  0
   10.6730    0.0880   23.9350 C   0  0  0  0  0  0  0  0  0  0  0  0
   11.9990    0.4540   24.1020 C   0  0  0  0  0  0  0  0  0  0  0  0
   12.9790   -0.0630   23.2660 C   0  0  0  0  0  0  0  0  0  0  0  0
   12.6090   -0.9770   22.3030 C   0  0  2  0  0  0  0  0  0  0  0  0
   11.2880   -1.3430   22.1170 C   0  0  0  0  0  0  0  0  0  0  0  0
  5  2  1  0
  6  1  1  0
  7  5  1  0
  7  1  1  0
  9  6  1  0
 10  5  1  0
 10  9  1  0
 10  8  1  0
 11  8  1  0
 11  3  1  0
 12 11  1  0
 13 12  1  6
 14 13  1  0
 15 14  1  0
 16 15  1  0
 17  4  1  1
 17 16  1  0
 18 13  1  0
 18 17  1  0
M  END
$$$$
