
     RDKit          3D

  5  5  0  0  0  0  0  0  0  0999 V2000
   16.9140   24.3680  -21.5120 N   0  0  0  0  0  0  0  0  0  0  0  0
   16.1730   24.7010  -22.5820 C   0  0  0  0  0  0  0  0  0  0  0  0
   16.1820   26.0490  -22.7060 N   0  0  0  0  0  0  0  0  0  0  0  0
   16.9290   26.5570  -21.6980 C   0  0  0  0  0  0  0  0  0  0  0  0
   17.3940   25.4960  -20.9530 C   0  0  0  0  0  0  0  0  0  0  0  0
  2  1  2  0
  3  2  1  0
  4  3  1  0
  5  4  2  0
  5  1  1  0
M  CHG  1   1   1
M  END
$$$$
