
     RDKit          3D

 30 33  0  0  0  0  0  0  0  0999 V2000
   21.4940  -25.9250   18.3920 C   0  0  0  0  0  0  0  0  0  0  0  0
   21.2140  -25.6500   19.7350 C   0  0  0  0  0  0  0  0  0  0  0  0
   21.6800  -24.5520   20.3130 N   0  0  0  0  0  0  0  0  0  0  0  0
   22.4410  -23.6650   19.6140 C   0  0  0  0  0  0  0  0  0  0  0  0
   22.9700  -22.4140   20.3000 N   0  0  0  0  0  0  0  0  0  0  0  0
   22.6770  -22.1440   21.6680 C   0  0  0  0  0  0  0  0  0  0  0  0
   21.8630  -23.0790   22.4210 C   0  0  0  0  0  0  0  0  0  0  0  0
   21.3550  -24.2960   21.7570 C   0  0  0  0  0  0  0  0  0  0  0  0
   20.6880  -25.0750   22.3630 O   0  0  0  0  0  0  0  0  0  0  0  0
   23.2240  -20.9280   22.2450 N   0  0  0  0  0  0  0  0  0  0  0  0
   23.0400  -20.4760   23.6030 C   0  0  0  0  0  0  0  0  0  0  0  0
   24.3370  -20.0020   24.2650 C   0  0  0  0  0  0  0  0  0  0  0  0
   25.0520  -19.0800   23.4770 O   0  0  0  0  0  0  0  0  0  0  0  0
   25.3140  -19.5950   22.1940 C   0  0  0  0  0  0  0  0  0  0  0  0
   24.0260  -20.0030   21.4810 C   0  0  0  0  0  0  0  0  0  0  0  0
   22.7620  -23.8710   18.2770 C   0  0  0  0  0  0  0  0  0  0  0  0
   22.2840  -25.0200   17.6350 C   0  0  0  0  0  0  0  0  0  0  0  0
   23.6150  -22.8520   17.5220 C   0  0  1  0  0  0  0  0  0  0  0  0
   25.0540  -23.3610   17.4160 C   0  0  0  0  0  0  0  0  0  0  0  0
   20.9460  -27.1910   17.7390 C   0  0  0  0  0  0  0  0  0  0  0  0
   23.0770  -22.6530   16.1830 N   0  0  0  0  0  0  0  0  0  0  0  0
   21.8930  -21.8400   15.9590 C   0  0  0  0  0  0  0  0  0  0  0  0
   20.2760  -20.9050   14.4460 C   0  0  0  0  0  0  0  0  0  0  0  0
   21.4040  -21.6790   14.6720 C   0  0  0  0  0  0  0  0  0  0  0  0
   19.6340  -20.2910   15.5060 C   0  0  0  0  0  0  0  0  0  0  0  0
   21.2470  -21.2220   17.0180 C   0  0  0  0  0  0  0  0  0  0  0  0
   20.1200  -20.4480   16.7940 C   0  0  0  0  0  0  0  0  0  0  0  0
   22.1050  -22.3510   13.4940 C   0  0  0  0  0  0  0  0  0  0  0  0
   23.0500  -23.1580   13.7040 O   0  0  0  0  0  0  0  0  0  0  0  0
   21.7390  -22.0950   12.3150 O   0  0  0  0  0  0  0  0  0  0  0  0
  2  1  2  0
  3  2  1  0
  4  3  1  0
  5  4  2  0
  6  5  1  0
  7  6  2  0
  8  3  1  0
  8  7  1  0
  9  8  2  0
 10  6  1  0
 11 10  1  0
 12 11  1  0
 13 12  1  0
 14 13  1  0
 15 14  1  0
 15 10  1  0
 16  4  1  0
 17  1  1  0
 17 16  2  0
 18 16  1  0
 18 19  1  6
 20  1  1  0
 21 18  1  0
 22 21  1  0
 24 23  2  0
 24 22  1  0
 25 23  1  0
 26 22  2  0
 27 25  2  0
 27 26  1  0
 28 24  1  0
 29 28  2  0
 30 28  1  0
M  END
$$$$
