
     RDKit          3D

 17 18  0  0  0  0  0  0  0  0999 V2000
   25.9860    6.1990   13.8720 N   0  0  0  0  0  0  0  0  0  0  0  0
   25.9590    4.8260   13.4070 C   0  0  0  0  0  0  0  0  0  0  0  0
   26.2970    3.9690   14.1610 O   0  0  0  0  0  0  0  0  0  0  0  0
   25.5340    4.4530   11.9820 C   0  0  0  0  0  0  0  0  0  0  0  0
   25.2810    5.4220   11.0170 C   0  0  0  0  0  0  0  0  0  0  0  0
   24.9130    5.0580    9.7360 C   0  0  0  0  0  0  0  0  0  0  0  0
   24.7950    3.7250    9.4090 C   0  0  0  0  0  0  0  0  0  0  0  0
   24.4200    3.3580    8.0670 N   0  0  0  0  0  0  0  0  0  0  0  0
   23.1740    2.6760    7.7860 C   0  0  0  0  0  0  0  0  0  0  0  0
   22.4230    2.4010    8.6660 O   0  0  0  0  0  0  0  0  0  0  0  0
   22.8640    2.3120    6.3200 C   0  0  2  0  0  0  0  0  0  0  0  0
   23.2700    1.1300    6.0790 C   0  0  0  0  0  0  0  0  0  0  0  0
   23.9250    1.1840    4.7130 C   0  0  0  0  0  0  0  0  0  0  0  0
   24.6020    2.5410    4.8010 C   0  0  0  0  0  0  0  0  0  0  0  0
   23.7010    3.2750    5.3240 O   0  0  0  0  0  0  0  0  0  0  0  0
   25.0560    2.7510   10.3550 C   0  0  0  0  0  0  0  0  0  0  0  0
   25.4240    3.1130   11.6410 C   0  0  0  0  0  0  0  0  0  0  0  0
  2  1  1  0
  3  2  1  0
  4  2  1  0
  5  4  1  0
  6  5  1  0
  7  6  1  0
  8  7  1  0
  9  8  1  0
 10  9  1  0
 11  9  1  1
 12 11  1  0
 13 12  1  0
 14 13  1  0
 15 14  1  0
 15 11  1  0
 16  7  1  0
 17 16  1  0
 17  4  1  0
M  END
$$$$
