
     RDKit          3D

 15 16  0  0  0  0  0  0  0  0999 V2000
   10.0720   -0.4900   24.9250 C   0  0  0  0  0  0  0  0  0  0  0  0
   11.8520   -1.6700   23.6760 C   0  0  0  0  0  0  0  0  0  0  0  0
   12.8600   -1.5610   22.5710 C   0  0  0  0  0  0  0  0  0  0  0  0
   13.8160   -0.4120   22.8180 C   0  0  0  0  0  0  0  0  0  0  0  0
   13.0440    0.9210   23.0580 C   0  0  0  0  0  0  0  0  0  0  0  0
   13.5990    2.1520   22.6570 C   0  0  0  0  0  0  0  0  0  0  0  0
   12.8930    3.3390   22.8670 C   0  0  0  0  0  0  0  0  0  0  0  0
   11.6240    3.2760   23.4760 C   0  0  0  0  0  0  0  0  0  0  0  0
   11.0700    2.0630   23.8680 C   0  0  0  0  0  0  0  0  0  0  0  0
   11.7810    0.8660   23.6530 C   0  0  0  0  0  0  0  0  0  0  0  0
   11.2200   -0.4400   24.0530 N   0  0  0  0  0  0  0  0  0  0  0  0
   11.6530    6.1490   23.5160 N   0  0  0  0  0  0  0  0  0  0  0  0
   10.1710    4.6960   25.1450 O   0  0  0  0  0  0  0  0  0  0  0  0
    9.4350    4.8220   23.0100 O   0  0  0  0  0  0  0  0  0  0  0  0
   10.6790    4.7780   23.7810 S   0  0  2  0  0  0  0  0  0  0  0  0
  3  2  1  0
  4  3  1  0
  5  4  1  0
  6  5  1  0
  7  6  1  0
  8  7  1  0
  9  8  1  0
 10  9  1  0
 10  5  1  0
 11  1  1  0
 11 10  1  0
 11  2  1  0
 15 14  1  0
 15 13  1  0
 15  8  1  0
 15 12  1  1
M  END
$$$$
