
     RDKit          3D

 37 41  0  0  0  0  0  0  0  0999 V2000
    8.4930   -0.2940   21.2570 C   0  0  0  0  0  0  0  0  0  0  0  0
    8.6590   -2.1640   22.7470 C   0  0  0  0  0  0  0  0  0  0  0  0
    9.2270   -0.9870   22.2430 C   0  0  0  0  0  0  0  0  0  0  0  0
   10.5860   -0.4900   22.7150 C   0  0  0  0  0  0  0  0  0  0  0  0
   11.6570   -1.3890   22.7330 C   0  0  0  0  0  0  0  0  0  0  0  0
    6.4980   -0.0640   19.8160 C   0  0  0  0  0  0  0  0  0  0  0  0
   12.9250   -0.9470   23.1490 C   0  0  0  0  0  0  0  0  0  0  0  0
   13.1180    0.3900   23.5390 C   0  0  0  0  0  0  0  0  0  0  0  0
   12.0540    1.2980   23.4960 C   0  0  0  0  0  0  0  0  0  0  0  0
   11.5010    3.6650   23.3020 C   0  0  0  0  0  0  0  0  0  0  0  0
   12.0900    4.9920   23.7880 C   0  0  0  0  0  0  0  0  0  0  0  0
   10.7860    0.8530   23.0830 C   0  0  0  0  0  0  0  0  0  0  0  0
    6.9100   -0.1580   18.4810 C   0  0  0  0  0  0  0  0  0  0  0  0
    5.0590    1.2480   17.8650 C   0  0  0  0  0  0  0  0  0  0  0  0
    4.6550    1.3310   19.2040 C   0  0  0  0  0  0  0  0  0  0  0  0
    5.3690    0.6630   20.2010 C   0  0  0  0  0  0  0  0  0  0  0  0
    6.7080   -1.9320   21.3530 C   0  0  0  0  0  0  0  0  0  0  0  0
    7.4210   -2.6450   22.3040 C   0  0  2  0  0  0  0  0  0  0  0  0
    6.8380   -3.9180   22.9200 C   0  0  0  0  0  0  0  0  0  0  0  0
    6.0730   -4.8800   22.2130 C   0  0  0  0  0  0  0  0  0  0  0  0
    7.0850   -4.0870   24.2940 C   0  0  0  0  0  0  0  0  0  0  0  0
    5.8510   -6.1440   24.2800 C   0  0  0  0  0  0  0  0  0  0  0  0
   11.5660    5.6690   24.8930 C   0  0  0  0  0  0  0  0  0  0  0  0
   12.1580    6.8770   25.3090 C   0  0  0  0  0  0  0  0  0  0  0  0
   13.2690    7.4090   24.6330 C   0  0  0  0  0  0  0  0  0  0  0  0
   13.7990    6.7260   23.5300 C   0  0  0  0  0  0  0  0  0  0  0  0
   13.2050    5.5200   23.1240 C   0  0  0  0  0  0  0  0  0  0  0  0
    7.2530   -0.7680   20.8230 N   0  0  0  0  0  0  0  0  0  0  0  0
    6.1800    0.5000   17.4880 N   0  0  0  0  0  0  0  0  0  0  0  0
    5.5790   -5.9930   22.9080 N   0  0  0  0  0  0  0  0  0  0  0  0
    6.6020   -5.1920   24.9750 N   0  0  0  0  0  0  0  0  0  0  0  0
    8.9910    0.8810   20.7030 O   0  0  0  0  0  0  0  0  0  0  0  0
   12.2810    2.6380   23.8680 O   0  0  0  0  0  0  0  0  0  0  0  0
    5.7870   -4.7530   20.8460 O   0  0  0  0  0  0  0  0  0  0  0  0
    5.3760   -7.2420   24.9900 O   0  0  0  0  0  0  0  0  0  0  0  0
   14.3010   -2.0870   23.2130 Cl  0  0  0  0  0  0  0  0  0  0  0  0
   13.8360    4.6160   21.7220 Cl  0  0  0  0  0  0  0  0  0  0  0  0
  3  1  1  0
  3  2  1  0
  4  3  1  0
  5  4  1  0
  7  5  1  0
  8  7  1  0
  9  8  1  0
 11 10  1  0
 12  4  1  0
 12  9  1  0
 13  6  1  0
 15 14  1  0
 16 15  1  0
 16  6  1  0
 18 17  1  0
 18  2  1  0
 18 19  1  1
 20 19  1  0
 21 19  1  0
 23 11  1  0
 24 23  1  0
 25 24  1  0
 26 25  1  0
 27 11  1  0
 27 26  1  0
 28 17  1  0
 28  6  1  0
 28  1  1  0
 29 14  1  0
 29 13  1  0
 30 22  1  0
 30 20  1  0
 31 22  1  0
 31 21  1  0
 32  1  1  0
 33 10  1  0
 33  9  1  0
 34 20  1  0
 35 22  1  0
 36  7  1  0
 37 27  1  0
M  END
