
     RDKit          3D

 21 23  0  0  0  0  0  0  0  0999 V2000
    9.0380    0.8750   21.1140 O   0  0  0  0  0  0  0  0  0  0  0  0
    8.4480   -0.1450   21.4580 C   0  0  0  0  0  0  0  0  0  0  0  0
    8.9560   -1.0080   22.5960 C   0  0  0  0  0  0  0  0  0  0  0  0
   10.4300   -0.7630   22.8360 C   0  0  0  0  0  0  0  0  0  0  0  0
   10.8550    0.1550   23.7870 C   0  0  0  0  0  0  0  0  0  0  0  0
   12.1980    0.4750   23.9140 C   0  0  0  0  0  0  0  0  0  0  0  0
   13.1420   -0.1220   23.0930 C   0  0  0  0  0  0  0  0  0  0  0  0
   11.3820   -1.3830   22.0300 C   0  0  0  0  0  0  0  0  0  0  0  0
   12.7150   -1.0530   22.1670 C   0  0  0  0  0  0  0  0  0  0  0  0
   13.8920   -1.8690   21.1680 Cl  0  0  0  0  0  0  0  0  0  0  0  0
    7.4410   -0.6750   20.7630 N   0  0  0  0  0  0  0  0  0  0  0  0
    6.6060   -0.2080   19.7320 C   0  0  0  0  0  0  0  0  0  0  0  0
    5.5720    0.7150   20.0810 C   0  0  0  0  0  0  0  0  0  0  0  0
    5.1510    0.7510   21.3810 N   0  0  0  0  0  0  0  0  0  0  0  0
    4.0580    1.4550   21.6480 C   0  0  0  0  0  0  0  0  0  0  0  0
    3.3090    2.1330   20.6930 C   0  0  0  0  0  0  0  0  0  0  0  0
    3.7240    2.1160   19.3960 C   0  0  0  0  0  0  0  0  0  0  0  0
    4.9070    1.4220   19.0530 C   0  0  0  0  0  0  0  0  0  0  0  0
    5.3830    1.2390   17.7330 C   0  0  0  0  0  0  0  0  0  0  0  0
    6.4170    0.4700   17.4150 N   0  0  0  0  0  0  0  0  0  0  0  0
    6.9900   -0.2330   18.3970 C   0  0  0  0  0  0  0  0  0  0  0  0
  2  1  2  0
  3  2  1  0
  4  3  1  0
  5  4  2  0
  6  5  1  0
  7  6  2  0
  8  4  1  0
  9  8  2  0
  9  7  1  0
 10  9  1  0
 11  2  1  0
 12 11  1  0
 13 12  1  0
 14 13  2  0
 15 14  1  0
 16 15  2  0
 17 16  1  0
 18 17  2  0
 18 13  1  0
 19 18  1  0
 20 19  2  0
 21 20  1  0
 21 12  2  0
M  END
