
     RDKit          3D

 37 39  0  0  0  0  0  0  0  0999 V2000
    5.4710   -4.2790   19.3810 O   0  0  0  0  0  0  0  0  0  0  0  0
    6.2650   -4.2330   20.2840 C   0  0  0  0  0  0  0  0  0  0  0  0
    7.4960   -3.4210   20.2010 C   0  0  2  0  0  0  0  0  0  0  0  0
    8.3620   -4.0460   21.1000 O   0  0  0  0  0  0  0  0  0  0  0  0
    7.3270   -1.9530   20.6560 C   0  0  2  0  0  0  0  0  0  0  0  0
    6.5020   -1.0240   19.7590 C   0  0  0  0  0  0  0  0  0  0  0  0
    6.0660    0.2330   20.5140 C   0  0  2  0  0  0  0  0  0  0  0  0
    5.4050    0.0580   21.8960 C   0  0  0  0  0  0  0  0  0  0  0  0
    4.4740    1.2230   21.5510 C   0  0  0  0  0  0  0  0  0  0  0  0
    4.8050    0.9950   20.0630 C   0  0  0  0  0  0  0  0  0  0  0  0
    8.6490   -1.3460   20.9060 N   0  0  0  0  0  0  0  0  0  0  0  0
    9.1150   -1.1090   22.1380 C   0  0  0  0  0  0  0  0  0  0  0  0
   10.4970   -0.4980   22.2230 C   0  0  2  0  0  0  0  0  0  0  0  0
   11.3840   -1.3740   23.0680 C   0  0  2  0  0  0  0  0  0  0  0  0
   11.5660   -0.6760   24.4040 C   0  0  1  0  0  0  0  0  0  0  0  0
   12.7530   -0.8910   23.4760 C   0  0  1  0  0  0  0  0  0  0  0  0
   13.7680   -1.9160   23.9520 C   0  0  0  0  0  0  0  0  0  0  0  0
   13.3680    0.2810   22.7230 C   0  0  0  0  0  0  0  0  0  0  0  0
   10.8620    0.6550   24.3640 C   0  0  0  0  0  0  0  0  0  0  0  0
   10.4120    0.7510   22.9670 N   0  0  0  0  0  0  0  0  0  0  0  0
    9.9210    1.8160   22.3200 C   0  0  0  0  0  0  0  0  0  0  0  0
    9.7800    3.1040   23.1300 C   0  0  2  0  0  0  0  0  0  0  0  0
    8.3360    3.5150   23.4420 C   0  0  2  0  0  0  0  0  0  0  0  0
    7.5210    3.8770   22.2010 C   0  0  0  0  0  0  0  0  0  0  0  0
    8.3250    4.7450   24.3570 C   0  0  0  0  0  0  0  0  0  0  0  0
    7.6600    2.3430   24.1480 C   0  0  0  0  0  0  0  0  0  0  0  0
   10.5190    4.1520   22.4590 N   0  0  0  0  0  0  0  0  0  0  0  0
   11.4750    4.8760   23.0860 C   0  0  0  0  0  0  0  0  0  0  0  0
   12.1190    5.7530   22.2920 N   0  0  0  0  0  0  0  0  0  0  0  0
   13.3260    6.5370   22.6370 C   0  0  2  0  0  0  0  0  0  0  0  0
   13.1060    7.2720   23.9570 C   0  0  0  0  0  0  0  0  0  0  0  0
   13.5630    7.5500   21.5150 C   0  0  0  0  0  0  0  0  0  0  0  0
   14.4830    5.5440   22.7470 C   0  0  0  0  0  0  0  0  0  0  0  0
   11.7110    4.7400   24.2940 O   0  0  0  0  0  0  0  0  0  0  0  0
    9.5650    1.7280   21.1480 O   0  0  0  0  0  0  0  0  0  0  0  0
    8.5150   -1.3760   23.1780 O   0  0  0  0  0  0  0  0  0  0  0  0
    6.0740   -5.0140   21.4980 N   0  0  0  0  0  0  0  0  0  0  0  0
  2  1  2  0
  3  2  1  0
  3  4  1  1
  5  3  1  0
  5  6  1  6
  7  6  1  6
  8  7  1  0
  9  8  1  0
 10  9  1  0
 10  7  1  0
 11  5  1  0
 12 11  1  0
 13 12  1  1
 14 13  1  6
 15 14  1  0
 16 15  1  0
 16 14  1  0
 16 17  1  1
 18 16  1  0
 15 19  1  6
 20 19  1  0
 20 13  1  0
 21 20  1  0
 22 21  1  0
 23 22  1  0
 23 24  1  6
 25 23  1  0
 26 23  1  0
 22 27  1  6
 28 27  1  0
 29 28  1  0
 30 29  1  0
 30 31  1  1
 32 30  1  0
 33 30  1  0
 34 28  2  0
 35 21  2  0
 36 12  2  0
 37  2  1  0
M  END
$$$$
