
     RDKit          3D

 32 35  0  0  0  0  0  0  0  0999 V2000
    6.7250   -0.0610   24.8180 O   0  0  0  0  0  0  0  0  0  0  0  0
    7.5250   -0.8890   25.1900 C   0  0  0  0  0  0  0  0  0  0  0  0
    8.5700   -1.2850   24.4490 N   0  0  0  0  0  0  0  0  0  0  0  0
    7.4260   -1.4980   26.5740 C   0  0  0  0  0  0  0  0  0  0  0  0
    6.0260   -1.9940   28.5510 N   0  0  0  0  0  0  0  0  0  0  0  0
    6.0720   -4.2080   19.6330 O   0  0  0  0  0  0  0  0  0  0  0  0
    6.9810   -3.5370   20.0530 C   0  0  0  0  0  0  0  0  0  0  0  0
    6.9310   -2.0070   20.1110 C   0  0  2  0  0  0  0  0  0  0  0  0
    6.8410   -1.4370   18.7110 C   0  0  0  0  0  0  0  0  0  0  0  0
    6.0070   -0.2110   18.5240 C   0  0  0  0  0  0  0  0  0  0  0  0
    5.8640    0.4160   17.3590 N   0  0  0  0  0  0  0  0  0  0  0  0
    5.0340    1.4450   17.5260 C   0  0  0  0  0  0  0  0  0  0  0  0
    4.6470    1.4840   18.8010 N   0  0  0  0  0  0  0  0  0  0  0  0
    5.2410    0.4570   19.4350 C   0  0  0  0  0  0  0  0  0  0  0  0
    8.1030   -1.4360   20.7830 N   0  0  0  0  0  0  0  0  0  0  0  0
    8.1160   -1.8640   22.1650 C   0  0  0  0  0  0  0  0  0  0  0  0
    8.6710   -0.7830   23.0700 C   0  0  2  0  0  0  0  0  0  0  0  0
   10.1140   -0.3850   22.7350 C   0  0  0  0  0  0  0  0  0  0  0  0
   11.1940   -1.3520   23.1800 C   0  0  1  0  0  0  0  0  0  0  0  0
   12.5700   -0.7050   23.0030 C   0  0  0  0  0  0  0  0  0  0  0  0
   13.6720   -1.6170   23.4980 C   0  0  0  0  0  0  0  0  0  0  0  0
   13.4340   -2.1740   24.9040 C   0  0  0  0  0  0  0  0  0  0  0  0
   12.0260   -2.7130   25.0690 C   0  0  0  0  0  0  0  0  0  0  0  0
   10.9960   -1.6860   24.6260 C   0  0  2  0  0  0  0  0  0  0  0  0
    9.6020   -2.2220   24.8940 C   0  0  0  0  0  0  0  0  0  0  0  0
    6.1080   -1.2650   27.2970 C   0  0  0  0  0  0  0  0  0  0  0  0
    6.3700   -3.2980   28.6780 C   0  0  0  0  0  0  0  0  0  0  0  0
    6.3050   -4.1880   27.5980 C   0  0  0  0  0  0  0  0  0  0  0  0
    6.6970   -5.5230   27.7510 C   0  0  0  0  0  0  0  0  0  0  0  0
    7.1380   -5.9530   28.9970 C   0  0  0  0  0  0  0  0  0  0  0  0
    7.1850   -5.0820   30.0610 C   0  0  0  0  0  0  0  0  0  0  0  0
    6.8160   -3.7610   29.8940 C   0  0  0  0  0  0  0  0  0  0  0  0
  2  1  1  0
  3  2  1  0
  4  2  1  0
  7  6  1  0
  8  7  1  6
  9  8  1  0
 10  9  1  0
 11 10  1  0
 12 11  1  0
 13 12  1  0
 14 13  1  0
 14 10  1  0
 15  8  1  0
 16 15  1  0
 17 16  1  6
 17  3  1  0
 18 17  1  0
 19 18  1  1
 20 19  1  0
 21 20  1  0
 22 21  1  0
 23 22  1  0
 24 23  1  6
 24 19  1  0
 25  3  1  0
 25 24  1  0
 26  4  1  0
 26  5  1  0
 27  5  1  0
 28 27  1  0
 29 28  1  0
 30 29  1  0
 31 30  1  0
 32 31  1  0
 32 27  1  0
M  END
$$$$
