
     RDKit          3D

 18 19  0  0  0  0  0  0  0  0999 V2000
    6.5380    0.5680   17.5790 N   0  0  0  0  0  0  0  0  0  0  0  0
    5.0510    1.1010   21.5940 C   0  0  0  0  0  0  0  0  0  0  0  0
    9.2410    0.8120   21.0010 O   0  0  0  0  0  0  0  0  0  0  0  0
    5.5400    0.8480   20.1910 C   0  0  1  0  0  0  0  0  0  0  0  0
    7.3950   -0.5100   20.9940 N   0  0  0  0  0  0  0  0  0  0  0  0
    4.8920    1.4170   19.1030 C   0  0  0  0  0  0  0  0  0  0  0  0
    5.4150    1.2550   17.8340 C   0  0  0  0  0  0  0  0  0  0  0  0
    7.1570   -0.0060   18.6160 C   0  0  0  0  0  0  0  0  0  0  0  0
    6.7030    0.1050   19.9290 C   0  0  0  0  0  0  0  0  0  0  0  0
    8.6110   -0.1510   21.4370 C   0  0  0  0  0  0  0  0  0  0  0  0
    9.1380   -1.0130   22.5670 C   0  0  0  0  0  0  0  0  0  0  0  0
   10.6010   -0.7310   22.8230 C   0  0  2  0  0  0  0  0  0  0  0  0
   10.9920    0.1450   23.8280 C   0  0  0  0  0  0  0  0  0  0  0  0
   12.3300    0.4580   24.0150 C   0  0  0  0  0  0  0  0  0  0  0  0
   13.2980   -0.0880   23.1880 C   0  0  0  0  0  0  0  0  0  0  0  0
   12.8890   -0.9630   22.2140 C   0  0  0  0  0  0  0  0  0  0  0  0
   11.5750   -1.3040   22.0130 C   0  0  0  0  0  0  0  0  0  0  0  0
   13.8340   -1.5360   21.4130 F   0  0  0  0  0  0  0  0  0  0  0  0
  4  2  1  1
  6  4  1  0
  7  6  1  0
  7  1  1  0
  8  1  1  0
  9  8  1  0
  9  5  1  0
  9  4  1  0
 10  5  1  0
 10  3  1  0
 11 10  1  0
 12 11  1  6
 13 12  1  0
 14 13  1  0
 15 14  1  0
 16 15  1  0
 17 12  1  0
 17 16  1  0
 18 16  1  0
M  END
$$$$
