
     RDKit          3D

 23 24  0  0  0  0  0  0  0  0999 V2000
    6.3540    0.4750   17.5240 N   0  0  0  0  0  0  0  0  0  0  0  0
    4.6000    1.0140   21.4330 C   0  0  0  0  0  0  0  0  0  0  0  0
    8.7780    0.8780   20.8890 O   0  0  0  0  0  0  0  0  0  0  0  0
   13.9180   -1.2120   22.1610 Cl  0  0  0  0  0  0  0  0  0  0  0  0
    5.2210    0.8080   20.0750 C   0  0  0  0  0  0  0  0  0  0  0  0
    7.0300   -0.5490   21.0130 N   0  0  0  0  0  0  0  0  0  0  0  0
    9.8670    3.9550   25.1960 O   0  0  0  0  0  0  0  0  0  0  0  0
    4.6770    1.4200   18.9490 C   0  0  0  0  0  0  0  0  0  0  0  0
   11.7670    3.1270   23.8770 N   0  0  0  0  0  0  0  0  0  0  0  0
   11.2840    5.6080   24.0570 O   0  0  0  0  0  0  0  0  0  0  0  0
    5.2680    1.2310   17.7150 C   0  0  0  0  0  0  0  0  0  0  0  0
    9.7050    4.2700   22.7730 N   0  0  0  0  0  0  0  0  0  0  0  0
    6.8710   -0.1350   18.5960 C   0  0  0  0  0  0  0  0  0  0  0  0
    6.3650    0.0080   19.8890 C   0  0  0  0  0  0  0  0  0  0  0  0
    8.2100   -0.0510   21.4410 C   0  0  0  0  0  0  0  0  0  0  0  0
    8.7810   -0.6890   22.6930 C   0  0  0  0  0  0  0  0  0  0  0  0
   10.1640   -0.1410   22.9700 C   0  0  0  0  0  0  0  0  0  0  0  0
   11.2840   -0.8710   22.5970 C   0  0  0  0  0  0  0  0  0  0  0  0
   12.5350   -0.3040   22.7070 C   0  0  0  0  0  0  0  0  0  0  0  0
   12.7180    0.9810   23.1870 C   0  0  0  0  0  0  0  0  0  0  0  0
   11.5970    1.7310   23.5450 C   0  0  0  0  0  0  0  0  0  0  0  0
   10.3310    1.1500   23.4680 C   0  0  0  0  0  0  0  0  0  0  0  0
   10.6620    4.3250   24.0720 S   0  0  2  0  0  0  0  0  0  0  0  0
  5  2  1  0
  8  5  2  0
 11  8  1  0
 11  1  2  0
 13  1  1  0
 14  5  1  0
 14 13  2  0
 14  6  1  0
 15  6  1  0
 15  3  2  0
 16 15  1  0
 17 16  1  0
 18 17  2  0
 19 18  1  0
 19  4  1  0
 20 19  2  0
 21 20  1  0
 21  9  1  0
 22 17  1  0
 22 21  2  0
 23 12  1  6
 23  7  2  0
 23  9  1  0
 23 10  2  0
M  END
