
     RDKit          3D

 21 22  0  0  0  0  0  0  0  0999 V2000
    7.7080   -3.0420   23.4690 N   0  0  0  0  0  0  0  0  0  0  0  0
    7.4340    0.8020   24.9830 C   0  0  0  0  0  0  0  0  0  0  0  0
    7.8370   -0.3140   24.1900 O   0  0  0  0  0  0  0  0  0  0  0  0
    9.1490   -0.3910   23.8050 C   0  0  0  0  0  0  0  0  0  0  0  0
    7.6500   -0.8000   20.5920 N   0  0  0  0  0  0  0  0  0  0  0  0
    6.0970   -2.1450   21.5800 O   0  0  0  0  0  0  0  0  0  0  0  0
   10.1570    0.4140   24.3260 C   0  0  0  0  0  0  0  0  0  0  0  0
    6.5310    0.6890   17.4590 N   0  0  0  0  0  0  0  0  0  0  0  0
   11.4610    0.2580   23.8870 C   0  0  0  0  0  0  0  0  0  0  0  0
   11.7390   -0.6950   22.9320 C   0  0  2  0  0  0  0  0  0  0  0  0
   10.7440   -1.4760   22.3770 C   0  0  0  0  0  0  0  0  0  0  0  0
    9.4280   -1.3510   22.8270 C   0  0  1  0  0  0  0  0  0  0  0  0
    8.3580   -2.3310   22.3590 C   0  0  2  0  0  0  0  0  0  0  0  0
    7.2430   -1.7180   21.4960 C   0  0  1  0  0  0  0  0  0  0  0  0
    6.9360    0.1080   19.7640 C   0  0  1  0  0  0  0  0  0  0  0  0
    7.2970    0.1540   18.4160 C   0  0  0  0  0  0  0  0  0  0  0  0
    5.3580    1.2150   17.8310 C   0  0  0  0  0  0  0  0  0  0  0  0
    4.9140    1.2410   19.1400 C   0  0  0  0  0  0  0  0  0  0  0  0
    5.7090    0.7050   20.1490 C   0  0  2  0  0  0  0  0  0  0  0  0
    5.3670    0.9790   21.5920 C   0  0  0  0  0  0  0  0  0  0  0  0
   13.5570   -1.0520   22.4810 Br  0  0  0  0  0  0  0  0  0  0  0  0
  3  2  1  0
  4  3  1  0
  7  4  1  0
  9  7  1  0
 10  9  1  0
 11 10  1  0
 12 11  1  1
 12  4  1  0
 13 12  1  0
 13  1  1  1
 14  6  1  6
 14  5  1  0
 14 13  1  0
 15  5  1  6
 16 15  1  0
 16  8  1  0
 17  8  1  0
 18 17  1  0
 19 18  1  0
 19 15  1  0
 19 20  1  1
 10 21  1  1
M  END
$$$$
