
     RDKit          3D

 21 24  0  0  0  0  0  0  0  0999 V2000
    7.5580   -0.3970   20.7250 N   0  0  0  0  0  0  0  0  0  0  0  0
    8.4670    0.2870   21.4800 C   0  0  0  0  0  0  0  0  0  0  0  0
    8.9260    1.3710   21.1330 O   0  0  0  0  0  0  0  0  0  0  0  0
    7.0740    0.0230   19.4970 C   0  0  0  0  0  0  0  0  0  0  0  0
    7.7210    0.0720   18.3470 N   0  0  0  0  0  0  0  0  0  0  0  0
   10.3690    0.8770   24.9700 O   0  0  0  0  0  0  0  0  0  0  0  0
    5.7450    0.8890   18.0190 C   0  0  0  0  0  0  0  0  0  0  0  0
    6.8620    0.6350   17.4110 N   0  0  0  0  0  0  0  0  0  0  0  0
    4.7950    0.7870   20.3710 C   0  0  2  0  0  0  0  0  0  0  0  0
    5.8120    0.5410   19.3350 N   0  0  0  0  0  0  0  0  0  0  0  0
    3.9380    1.9930   20.2250 C   0  0  0  0  0  0  0  0  0  0  0  0
    4.9860    1.9430   21.2870 C   0  0  0  0  0  0  0  0  0  0  0  0
    8.8240   -0.3620   22.8210 C   0  0  2  0  0  0  0  0  0  0  0  0
    8.1680    0.4260   23.9870 C   0  0  0  0  0  0  0  0  0  0  0  0
    9.0340    0.3890   25.2260 C   0  0  0  0  0  0  0  0  0  0  0  0
   11.0120    0.2900   23.9060 C   0  0  0  0  0  0  0  0  0  0  0  0
   12.3960    0.3920   23.9040 C   0  0  0  0  0  0  0  0  0  0  0  0
   13.1240   -0.2650   22.9200 C   0  0  0  0  0  0  0  0  0  0  0  0
   12.4790   -1.0160   21.9650 C   0  0  0  0  0  0  0  0  0  0  0  0
   11.0950   -1.0870   21.9500 C   0  0  0  0  0  0  0  0  0  0  0  0
   10.3370   -0.4160   22.9050 C   0  0  0  0  0  0  0  0  0  0  0  0
  2  1  1  0
  3  2  2  0
  4  1  1  0
  5  4  2  0
  8  7  2  0
  8  5  1  0
  9 10  1  6
 10  7  1  0
 10  4  1  0
 11  9  1  0
 12 11  1  0
 12  9  1  0
 13  2  1  6
 14 13  1  0
 15 14  1  0
 15  6  1  0
 16  6  1  0
 17 16  2  0
 18 17  1  0
 19 18  2  0
 20 19  1  0
 21 13  1  0
 21 20  2  0
 21 16  1  0
M  END
