
     RDKit          3D

 25 27  0  0  0  0  0  0  0  0999 V2000
   10.4360   -0.1490   23.9510 N   0  0  0  0  0  0  0  0  0  0  0  0
   10.5290   -1.1240   22.8460 C   0  0  2  0  0  0  0  0  0  0  0  0
    7.2260   -2.5640   21.5370 C   0  0  2  0  0  0  0  0  0  0  0  0
    7.4370   -3.8750   20.7430 C   0  0  2  0  0  0  0  0  0  0  0  0
    6.2520   -1.5180   20.8910 C   0  0  0  0  0  0  0  0  0  0  0  0
    6.8920   -0.5570   19.8590 C   0  0  0  0  0  0  0  0  0  0  0  0
    5.8690    0.2550   19.0360 C   0  0  0  0  0  0  0  0  0  0  0  0
    6.1100   -4.5790   20.5070 C   0  0  0  0  0  0  0  0  0  0  0  0
    6.0560   -5.8160   22.6240 C   0  0  1  0  0  0  0  0  0  0  0  0
    5.1490   -5.3270   23.7450 C   0  0  0  0  0  0  0  0  0  0  0  0
    4.9660   -6.7340   23.1860 C   0  0  0  0  0  0  0  0  0  0  0  0
    9.6200    0.8260   23.9870 C   0  0  0  0  0  0  0  0  0  0  0  0
    9.2640   -1.9760   22.7670 C   0  0  0  0  0  0  0  0  0  0  0  0
    8.9710   -2.7120   23.7180 O   0  0  0  0  0  0  0  0  0  0  0  0
    5.5970   -5.3950   21.3180 N   0  0  0  0  0  0  0  0  0  0  0  0
    8.5230   -1.8620   21.7240 N   0  0  0  0  0  0  0  0  0  0  0  0
   11.8300   -1.8770   23.1830 C   0  0  1  0  0  0  0  0  0  0  0  0
   12.9960   -1.4860   22.2800 C   0  0  0  0  0  0  0  0  0  0  0  0
   13.9030   -0.5610   23.0790 C   0  0  0  0  0  0  0  0  0  0  0  0
    8.3540   -4.7460   21.4640 O   0  0  0  0  0  0  0  0  0  0  0  0
    5.4910   -4.3890   19.4990 O   0  0  0  0  0  0  0  0  0  0  0  0
    8.7730    0.9330   23.1140 O   0  0  0  0  0  0  0  0  0  0  0  0
   12.2660   -1.5300   24.5950 C   0  0  2  0  0  0  0  0  0  0  0  0
   11.3180   -0.4460   25.0870 C   0  0  0  0  0  0  0  0  0  0  0  0
   13.7020   -1.0200   24.5170 C   0  0  0  0  0  0  0  0  0  0  0  0
  2  1  1  0
  4  3  1  0
  3  5  1  6
  6  5  1  0
  7  6  1  0
  8  4  1  0
 10  9  1  0
 11 10  1  0
 11  9  1  0
 12  1  1  0
  2 13  1  1
 14 13  2  0
  9 15  1  6
 15  8  1  0
 16  3  1  0
 16 13  1  0
 17  2  1  0
 17 18  1  6
 19 18  1  0
  4 20  1  1
 21  8  2  0
 22 12  2  0
 23 17  1  0
 24  1  1  0
 23 24  1  6
 25 23  1  0
 25 19  1  0
M  END
$$$$
