
     RDKit          3D

 25 27  0  0  0  0  0  0  0  0999 V2000
    7.3360   -1.4360   21.3210 N   0  0  0  0  0  0  0  0  0  0  0  0
   10.4670    2.6190   23.9790 C   0  0  0  0  0  0  0  0  0  0  0  0
   10.2510    1.2880   23.5010 O   0  0  0  0  0  0  0  0  0  0  0  0
   11.3430    0.5590   23.1150 C   0  0  0  0  0  0  0  0  0  0  0  0
    4.8710    1.6270   18.2370 N   0  0  0  0  0  0  0  0  0  0  0  0
    9.7280   -1.0740   22.5950 O   0  0  0  0  0  0  0  0  0  0  0  0
   12.6550    1.0180   23.1380 C   0  0  0  0  0  0  0  0  0  0  0  0
    5.4210   -2.5270   20.8700 O   0  0  0  0  0  0  0  0  0  0  0  0
   13.6710    0.2130   22.6450 C   0  0  0  0  0  0  0  0  0  0  0  0
    6.4940    1.0950   16.7550 O   0  0  0  0  0  0  0  0  0  0  0  0
   13.3920   -1.0520   22.1610 C   0  0  0  0  0  0  0  0  0  0  0  0
   12.0940   -1.5370   22.1600 C   0  0  0  0  0  0  0  0  0  0  0  0
   11.0600   -0.7310   22.6200 C   0  0  0  0  0  0  0  0  0  0  0  0
    9.3570   -2.4210   22.2610 C   0  0  0  0  0  0  0  0  0  0  0  0
    7.8600   -2.4710   22.1980 C   0  0  0  0  0  0  0  0  0  0  0  0
    6.1470   -1.5440   20.7300 C   0  0  0  0  0  0  0  0  0  0  0  0
    5.7240   -0.3910   19.9130 C   0  0  1  0  0  0  0  0  0  0  0  0
    6.2940   -0.2090   18.6950 C   0  0  0  0  0  0  0  0  0  0  0  0
    5.9060    0.8350   17.8100 C   0  0  1  0  0  0  0  0  0  0  0  0
    4.2340    1.4960   19.4690 C   0  0  0  0  0  0  0  0  0  0  0  0
    3.1650    2.3200   19.8070 C   0  0  0  0  0  0  0  0  0  0  0  0
    2.5440    2.1720   21.0360 C   0  0  0  0  0  0  0  0  0  0  0  0
    2.9960    1.2350   21.9420 C   0  0  0  0  0  0  0  0  0  0  0  0
    4.0550    0.4030   21.6220 C   0  0  0  0  0  0  0  0  0  0  0  0
    4.6660    0.5040   20.3690 C   0  0  0  0  0  0  0  0  0  0  0  0
  3  2  1  0
  4  3  1  0
  7  4  1  0
  9  7  1  0
 11  9  1  0
 12 11  1  0
 13  6  1  0
 13 12  1  0
 13  4  1  0
 14  6  1  0
 15  1  1  0
 15 14  1  0
 16  8  1  0
 16  1  1  0
 17 16  1  6
 18 17  1  0
 19  5  1  0
 19 18  1  0
 19 10  1  1
 20  5  1  0
 21 20  1  0
 22 21  1  0
 23 22  1  0
 24 23  1  0
 25 24  1  0
 25 20  1  0
 25 17  1  0
M  END
$$$$
