
     RDKit          3D

 18 19  0  0  0  0  0  0  0  0999 V2000
    3.7350    2.1220   19.2930 N   0  0  0  0  0  0  0  0  0  0  0  0
    4.8670    1.3810   19.0660 C   0  0  0  0  0  0  0  0  0  0  0  0
    9.1240    1.0390   20.8790 O   0  0  0  0  0  0  0  0  0  0  0  0
   14.2750   -1.4450   21.5050 Cl  0  0  0  0  0  0  0  0  0  0  0  0
    5.4300    1.2510   17.7880 C   0  0  0  0  0  0  0  0  0  0  0  0
    6.5440    0.5630   17.5370 N   0  0  0  0  0  0  0  0  0  0  0  0
    7.1420   -0.0480   18.5620 C   0  0  0  0  0  0  0  0  0  0  0  0
    7.4680   -0.5320   20.9100 N   0  0  0  0  0  0  0  0  0  0  0  0
    6.6810    0.0150   19.8750 C   0  0  1  0  0  0  0  0  0  0  0  0
    9.3030   -0.7740   22.2570 N   0  0  0  0  0  0  0  0  0  0  0  0
    8.6600   -0.0070   21.3240 C   0  0  0  0  0  0  0  0  0  0  0  0
   10.6070   -0.5070   22.7280 C   0  0  2  0  0  0  0  0  0  0  0  0
   10.8430    0.5520   23.5970 C   0  0  0  0  0  0  0  0  0  0  0  0
   12.1320    1.0300   23.7680 C   0  0  0  0  0  0  0  0  0  0  0  0
   13.1920    0.4470   23.0910 C   0  0  0  0  0  0  0  0  0  0  0  0
   12.9440   -0.6480   22.2840 C   0  0  0  0  0  0  0  0  0  0  0  0
   11.6700   -1.1440   22.1000 C   0  0  0  0  0  0  0  0  0  0  0  0
    5.5190    0.7380   20.1190 C   0  0  0  0  0  0  0  0  0  0  0  0
  2  1  1  0
  5  2  1  0
  6  5  1  0
  7  6  1  0
  9  8  1  1
  9  7  1  0
 11  8  1  0
 11  3  1  0
 11 10  1  0
 12 10  1  6
 13 12  1  0
 14 13  1  0
 15 14  1  0
 16  4  1  0
 16 15  1  0
 17 12  1  0
 17 16  1  0
 18  2  1  0
 18  9  1  0
M  END
$$$$
