
     RDKit          3D

 10 10  0  0  0  0  0  0  0  0999 V2000
   -2.6250    8.8000  -14.0160 C   0  0  0  0  0  0  0  0  0  0  0  0
   -2.3540   10.1220  -14.1140 O   0  0  0  0  0  0  0  0  0  0  0  0
   -2.7930   10.8270  -15.2800 C   0  0  0  0  0  0  0  0  0  0  0  0
   -2.6290   12.3100  -15.0660 C   0  0  0  0  0  0  0  0  0  0  0  0
   -1.7280   12.7780  -14.0790 C   0  0  0  0  0  0  0  0  0  0  0  0
   -1.5730   14.1760  -13.8270 C   0  0  0  0  0  0  0  0  0  0  0  0
   -2.3210   15.0810  -14.5830 C   0  0  0  0  0  0  0  0  0  0  0  0
   -3.2070   14.6070  -15.5640 C   0  0  0  0  0  0  0  0  0  0  0  0
   -3.3520   13.2250  -15.7800 C   0  0  0  0  0  0  0  0  0  0  0  0
   -3.3540    8.2390  -14.8070 O   0  0  0  0  0  0  0  0  0  0  0  0
  2  1  1  0
  3  2  1  0
  4  3  1  0
  5  4  1  0
  6  5  1  0
  7  6  1  0
  8  7  1  0
  9  8  1  0
  9  4  1  0
 10  1  1  0
M  END
