
     RDKit          3D

 24 26  0  0  0  0  0  0  0  0999 V2000
    6.5280    0.6100   17.2900 N   0  0  0  0  0  0  0  0  0  0  0  0
   11.9050    4.7300   22.2560 N   0  0  0  0  0  0  0  0  0  0  0  0
    5.4980    0.7840   19.8970 C   0  0  0  0  0  0  0  0  0  0  0  0
   13.2160    0.5660   22.7210 C   0  0  0  0  0  0  0  0  0  0  0  0
   12.5470    2.7190   23.5250 O   0  0  0  0  0  0  0  0  0  0  0  0
   10.5260   -0.1830   22.6440 C   0  0  0  0  0  0  0  0  0  0  0  0
    4.8770    1.4220   18.8270 C   0  0  0  0  0  0  0  0  0  0  0  0
   10.8910    1.0720   23.1200 C   0  0  0  0  0  0  0  0  0  0  0  0
    8.4650    0.1710   21.2640 C   0  0  0  0  0  0  0  0  0  0  0  0
    6.6710    0.0500   19.6210 C   0  0  0  0  0  0  0  0  0  0  0  0
    7.1300   -0.0150   18.3070 C   0  0  0  0  0  0  0  0  0  0  0  0
   12.8130    3.5480   22.3840 C   0  0  2  0  0  0  0  0  0  0  0  0
   12.8360   -0.6860   22.2820 C   0  0  0  0  0  0  0  0  0  0  0  0
   11.5130   -1.0710   22.2360 C   0  0  0  0  0  0  0  0  0  0  0  0
   12.2260    1.4400   23.1370 C   0  0  0  0  0  0  0  0  0  0  0  0
   13.8940    4.5470   22.8080 C   0  0  0  0  0  0  0  0  0  0  0  0
    4.9570    0.9350   21.2960 C   0  0  0  0  0  0  0  0  0  0  0  0
    7.4350   -0.4840   20.6850 N   0  0  0  0  0  0  0  0  0  0  0  0
    8.8760    1.2600   20.8770 O   0  0  0  0  0  0  0  0  0  0  0  0
   13.0230    6.7700   21.9330 O   0  0  0  0  0  0  0  0  0  0  0  0
    9.0670   -0.5320   22.4650 C   0  0  0  0  0  0  0  0  0  0  0  0
    5.4230    1.3170   17.5630 C   0  0  0  0  0  0  0  0  0  0  0  0
   12.9340    5.5970   22.2780 C   0  0  0  0  0  0  0  0  0  0  0  0
   14.0640   -1.8280   21.8170 Cl  0  0  0  0  0  0  0  0  0  0  0  0
  7  3  1  0
  8  6  1  0
 10  3  2  0
 11 10  1  0
 11  1  2  0
 12  5  1  1
 12  2  1  0
 13  4  2  0
 14  6  2  0
 14 13  1  0
 15  8  2  0
 15  5  1  0
 15  4  1  0
 16 12  1  0
 17  3  1  0
 18 10  1  0
 18  9  1  0
 19  9  2  0
 21  9  1  0
 21  6  1  0
 22  7  2  0
 22  1  1  0
 23 16  1  0
 23  2  1  0
 23 20  2  0
 24 13  1  0
M  END
