
     RDKit          3D

 16 17  0  0  0  0  0  0  0  0999 V2000
   23.0850  -17.5230   24.2520 C   0  0  0  0  0  0  0  0  0  0  0  0
   23.1930  -18.7560   23.9590 N   0  0  0  0  0  0  0  0  0  0  0  0
   21.9920  -19.4700   24.1040 C   0  0  0  0  0  0  0  0  0  0  0  0
   22.1050  -20.9630   23.7580 C   0  0  0  0  0  0  0  0  0  0  0  0
   22.7720  -21.2160   22.5270 N   0  0  0  0  0  0  0  0  0  0  0  0
   23.9960  -20.4810   22.4620 C   0  0  0  0  0  0  0  0  0  0  0  0
   23.8080  -18.9950   22.7250 C   0  0  0  0  0  0  0  0  0  0  0  0
   22.2390  -22.1210   21.5100 C   0  0  0  0  0  0  0  0  0  0  0  0
   21.2060  -22.6670   21.7010 O   0  0  0  0  0  0  0  0  0  0  0  0
   22.9240  -22.3480   20.2560 N   0  0  0  0  0  0  0  0  0  0  0  0
   22.3890  -23.2390   19.2410 C   0  0  0  0  0  0  0  0  0  0  0  0
   22.0320  -24.5410   19.5500 C   0  0  0  0  0  0  0  0  0  0  0  0
   21.5400  -25.3770   18.5560 C   0  0  0  0  0  0  0  0  0  0  0  0
   21.4090  -24.9150   17.2530 C   0  0  0  0  0  0  0  0  0  0  0  0
   21.7720  -23.6090   16.9410 C   0  0  0  0  0  0  0  0  0  0  0  0
   22.2660  -22.7740   17.9370 C   0  0  0  0  0  0  0  0  0  0  0  0
  2  1  1  0
  3  2  1  0
  4  3  1  0
  5  4  1  0
  6  5  1  0
  7  6  1  0
  7  2  1  0
  8  5  1  0
  9  8  1  0
 10  8  1  0
 11 10  1  0
 12 11  1  0
 13 12  1  0
 14 13  1  0
 15 14  1  0
 16 15  1  0
 16 11  1  0
M  END
$$$$
