
     RDKit          3D

 25 28  0  0  0  0  0  0  0  0999 V2000
   13.9600   -1.6320   21.2970 Cl  0  0  0  0  0  0  0  0  0  0  0  0
   12.6380   -1.0270   22.2530 C   0  0  0  0  0  0  0  0  0  0  0  0
   11.3700   -1.4970   22.0030 C   0  0  0  0  0  0  0  0  0  0  0  0
   12.8850   -0.1020   23.2390 C   0  0  0  0  0  0  0  0  0  0  0  0
   11.8350    0.3500   24.0220 C   0  0  0  0  0  0  0  0  0  0  0  0
   10.5390   -0.1040   23.7840 C   0  0  0  0  0  0  0  0  0  0  0  0
    9.4580    0.3280   24.5550 N   0  0  0  0  0  0  0  0  0  0  0  0
    9.6710    1.2590   25.6610 C   0  0  0  0  0  0  0  0  0  0  0  0
   10.3000   -1.0300   22.7580 C   0  0  0  0  0  0  0  0  0  0  0  0
    8.9020   -1.5060   22.4290 C   0  0  1  0  0  0  0  0  0  0  0  0
    7.9830   -1.4390   23.6700 C   0  0  0  0  0  0  0  0  0  0  0  0
    8.0690   -0.0710   24.3430 C   0  0  0  0  0  0  0  0  0  0  0  0
    8.4650   -0.5680   21.3060 C   0  0  0  0  0  0  0  0  0  0  0  0
    9.0620    0.4790   21.0560 O   0  0  0  0  0  0  0  0  0  0  0  0
    7.3750   -0.9800   20.6280 N   0  0  0  0  0  0  0  0  0  0  0  0
    6.6560   -0.2600   19.6630 C   0  0  1  0  0  0  0  0  0  0  0  0
    5.5450    0.5240   20.1000 C   0  0  0  0  0  0  0  0  0  0  0  0
    5.0680    0.5430   21.4370 C   0  0  0  0  0  0  0  0  0  0  0  0
    3.9840    1.2970   21.7840 C   0  0  0  0  0  0  0  0  0  0  0  0
    3.3280    2.0690   20.8380 C   0  0  0  0  0  0  0  0  0  0  0  0
    3.7580    2.0980   19.5440 C   0  0  0  0  0  0  0  0  0  0  0  0
    4.8740    1.3240   19.1380 C   0  0  0  0  0  0  0  0  0  0  0  0
    5.3570    1.2930   17.8080 C   0  0  0  0  0  0  0  0  0  0  0  0
    6.3880    0.5570   17.4030 N   0  0  0  0  0  0  0  0  0  0  0  0
    7.0090   -0.1950   18.3160 C   0  0  0  0  0  0  0  0  0  0  0  0
  2  1  1  0
  3  2  1  0
  4  2  1  0
  5  4  1  0
  6  5  1  0
  7  6  1  0
  8  7  1  0
  9  6  1  0
  9  3  1  0
 10  9  1  0
 11 10  1  0
 12 11  1  0
 12  7  1  0
 10 13  1  6
 14 13  1  0
 15 13  1  0
 16 15  1  1
 17 16  1  0
 18 17  1  0
 19 18  1  0
 20 19  1  0
 21 20  1  0
 22 21  1  0
 22 17  1  0
 23 22  1  0
 24 23  1  0
 25 24  1  0
 25 16  1  0
M  END
$$$$
