
     RDKit          3D

 27 30  0  0  0  0  0  0  0  0999 V2000
    8.7510   -4.8960   26.0000 N   0  0  0  0  0  0  0  0  0  0  0  0
    7.7060   -5.1640   26.9640 C   0  0  0  0  0  0  0  0  0  0  0  0
    8.9840    1.1420   21.1720 O   0  0  0  0  0  0  0  0  0  0  0  0
    8.8590   -3.7230   25.2750 C   0  0  0  0  0  0  0  0  0  0  0  0
    9.2540   -0.1890   22.9960 N   0  0  0  0  0  0  0  0  0  0  0  0
    7.9960   -2.6490   25.5010 C   0  0  0  0  0  0  0  0  0  0  0  0
    7.0350   -0.3840   20.0700 N   0  0  0  0  0  0  0  0  0  0  0  0
    8.0770   -1.5070   24.7170 C   0  0  0  0  0  0  0  0  0  0  0  0
    7.5080   -0.4410   18.8000 N   0  0  0  0  0  0  0  0  0  0  0  0
    9.0250   -1.4210   23.6960 C   0  0  0  0  0  0  0  0  0  0  0  0
    6.7540    0.2960   18.0350 N   0  0  0  0  0  0  0  0  0  0  0  0
    9.8610   -2.5090   23.4550 C   0  0  0  0  0  0  0  0  0  0  0  0
    9.7910   -3.6410   24.2470 C   0  0  0  0  0  0  0  0  0  0  0  0
   10.2230    0.7440   23.5580 C   0  0  0  0  0  0  0  0  0  0  0  0
   11.6310    0.4200   23.1290 C   0  0  0  0  0  0  0  0  0  0  0  0
   12.8310    0.9650   23.6620 C   0  0  0  0  0  0  0  0  0  0  0  0
   13.9510    0.4430   23.0860 C   0  0  0  0  0  0  0  0  0  0  0  0
   11.8860   -0.5030   22.1520 C   0  0  0  0  0  0  0  0  0  0  0  0
    8.7300    0.1040   21.7690 C   0  0  0  0  0  0  0  0  0  0  0  0
    7.8270   -0.9510   21.1390 C   0  0  0  0  0  0  0  0  0  0  0  0
    5.7680    0.8550   18.8160 C   0  0  0  0  0  0  0  0  0  0  0  0
    4.7030    1.6920   18.4950 C   0  0  0  0  0  0  0  0  0  0  0  0
    3.8450    2.0950   19.5110 C   0  0  0  0  0  0  0  0  0  0  0  0
    4.0550    1.6890   20.8290 C   0  0  0  0  0  0  0  0  0  0  0  0
    5.1170    0.8560   21.1600 C   0  0  0  0  0  0  0  0  0  0  0  0
    5.9530    0.4400   20.1300 C   0  0  0  0  0  0  0  0  0  0  0  0
   13.5470   -0.7320   21.8700 S   0  0  0  0  0  0  0  0  0  0  0  0
  2  1  1  0
  4  1  1  0
  6  4  2  0
  8  6  1  0
  9  7  1  0
 10  8  2  0
 10  5  1  0
 11  9  2  0
 12 10  1  0
 13 12  2  0
 13  4  1  0
 14  5  1  0
 15 14  1  0
 16 15  1  0
 17 16  2  0
 18 15  2  0
 19  3  2  0
 19  5  1  0
 20 19  1  0
 20  7  1  0
 21 11  1  0
 22 21  2  0
 23 22  1  0
 24 23  2  0
 25 24  1  0
 26 25  2  0
 26 21  1  0
 26  7  1  0
 27 18  1  0
 27 17  1  0
M  END
