
     RDKit          3D

 20 22  0  0  0  0  0  0  0  0999 V2000
    6.4560    0.5020   17.6510 N   0  0  0  0  0  0  0  0  0  0  0  0
    4.9720    0.9480   21.6780 C   0  0  0  0  0  0  0  0  0  0  0  0
    9.1950    1.0900   20.9090 O   0  0  0  0  0  0  0  0  0  0  0  0
   13.9120   -2.6220   23.6070 Cl  0  0  0  0  0  0  0  0  0  0  0  0
    5.4870    0.7570   20.2750 C   0  0  0  0  0  0  0  0  0  0  0  0
    7.5060   -0.4920   21.0140 N   0  0  0  0  0  0  0  0  0  0  0  0
    4.8340    1.3450   19.1990 C   0  0  0  0  0  0  0  0  0  0  0  0
    9.3240   -0.7950   22.2390 N   0  0  0  0  0  0  0  0  0  0  0  0
    5.3450    1.1940   17.9240 C   0  0  0  0  0  0  0  0  0  0  0  0
    7.0790   -0.0780   18.6820 C   0  0  0  0  0  0  0  0  0  0  0  0
    6.6410    0.0260   19.9970 C   0  0  0  0  0  0  0  0  0  0  0  0
    7.2230   -1.7230   21.7680 C   0  0  0  0  0  0  0  0  0  0  0  0
    8.4840   -1.9530   22.5690 C   0  0  0  0  0  0  0  0  0  0  0  0
    8.7320    0.0510   21.3310 C   0  0  0  0  0  0  0  0  0  0  0  0
   10.5980   -0.5750   22.8210 C   0  0  0  0  0  0  0  0  0  0  0  0
   10.9990    0.7350   23.0660 C   0  0  0  0  0  0  0  0  0  0  0  0
   12.3250    1.0060   23.3470 C   0  0  0  0  0  0  0  0  0  0  0  0
   13.2440   -0.0230   23.4480 C   0  0  0  0  0  0  0  0  0  0  0  0
   12.8070   -1.3200   23.2940 C   0  0  0  0  0  0  0  0  0  0  0  0
   11.5070   -1.6180   22.9430 C   0  0  0  0  0  0  0  0  0  0  0  0
  5  2  1  0
  7  5  2  0
  9  7  1  0
  9  1  2  0
 10  1  1  0
 11 10  2  0
 11  6  1  0
 11  5  1  0
 12  6  1  0
 13 12  1  0
 13  8  1  0
 14  6  1  0
 14  3  2  0
 14  8  1  0
 15  8  1  0
 16 15  2  0
 17 16  1  0
 18 17  2  0
 19 18  1  0
 19  4  1  0
 20 15  1  0
 20 19  2  0
M  END
