
     RDKit          3D

 37 39  0  0  0  0  0  0  0  0999 V2000
    5.4770   -4.4280   19.7190 O   0  0  0  0  0  0  0  0  0  0  0  0
    6.3790   -4.5710   20.5510 C   0  0  0  0  0  0  0  0  0  0  0  0
    7.6550   -3.7650   20.4070 C   0  0  2  0  0  0  0  0  0  0  0  0
    8.5830   -4.1990   21.3780 O   0  0  0  0  0  0  0  0  0  0  0  0
    7.4000   -2.2860   20.7710 C   0  0  2  0  0  0  0  0  0  0  0  0
    6.7280   -1.5650   19.6010 C   0  0  0  0  0  0  0  0  0  0  0  0
    6.5640   -0.0580   19.7640 C   0  0  1  0  0  0  0  0  0  0  0  0
    5.8290    0.6890   18.6340 C   0  0  0  0  0  0  0  0  0  0  0  0
    4.6410    0.9320   19.6250 C   0  0  0  0  0  0  0  0  0  0  0  0
    5.5500    0.4380   20.8070 C   0  0  0  0  0  0  0  0  0  0  0  0
    8.6730   -1.6380   21.0570 N   0  0  0  0  0  0  0  0  0  0  0  0
    9.0330   -1.2000   22.2690 C   0  0  0  0  0  0  0  0  0  0  0  0
   10.4200   -0.5450   22.3470 C   0  0  2  0  0  0  0  0  0  0  0  0
   11.3920   -1.4170   23.1710 C   0  0  2  0  0  0  0  0  0  0  0  0
   11.5690   -0.7480   24.5210 C   0  0  1  0  0  0  0  0  0  0  0  0
   12.7590   -0.9410   23.6120 C   0  0  2  0  0  0  0  0  0  0  0  0
   13.4030    0.2830   22.9500 C   0  0  0  0  0  0  0  0  0  0  0  0
   13.7650   -2.0380   23.9600 C   0  0  0  0  0  0  0  0  0  0  0  0
   10.7760    0.5500   24.4920 C   0  0  0  0  0  0  0  0  0  0  0  0
   10.3490    0.7060   23.0960 N   0  0  0  0  0  0  0  0  0  0  0  0
    9.9250    1.8090   22.4600 C   0  0  0  0  0  0  0  0  0  0  0  0
    9.7080    3.0960   23.2720 C   0  0  2  0  0  0  0  0  0  0  0  0
    8.2140    3.4220   23.5640 C   0  0  2  0  0  0  0  0  0  0  0  0
    7.5490    2.2240   24.2460 C   0  0  0  0  0  0  0  0  0  0  0  0
    7.4570    3.7420   22.2760 C   0  0  0  0  0  0  0  0  0  0  0  0
    8.1310    4.6330   24.4930 C   0  0  0  0  0  0  0  0  0  0  0  0
   10.3780    4.1720   22.5680 N   0  0  0  0  0  0  0  0  0  0  0  0
   11.3550    4.8670   23.2000 C   0  0  0  0  0  0  0  0  0  0  0  0
   11.9080    5.8180   22.4080 N   0  0  0  0  0  0  0  0  0  0  0  0
   13.1290    6.6050   22.7110 C   0  0  1  0  0  0  0  0  0  0  0  0
   14.3150    5.6640   22.8870 C   0  0  0  0  0  0  0  0  0  0  0  0
   13.3920    7.5470   21.5470 C   0  0  0  0  0  0  0  0  0  0  0  0
   12.9080    7.4080   23.9850 C   0  0  0  0  0  0  0  0  0  0  0  0
   11.6880    4.6490   24.3720 O   0  0  0  0  0  0  0  0  0  0  0  0
    9.7090    1.8070   21.2600 O   0  0  0  0  0  0  0  0  0  0  0  0
    8.3280   -1.3070   23.2650 O   0  0  0  0  0  0  0  0  0  0  0  0
    6.3220   -5.4510   21.5360 N   0  0  0  0  0  0  0  0  0  0  0  0
  2  1  2  0
  3  2  1  0
  3  4  1  1
  5  3  1  0
  5  6  1  6
  7  6  1  6
  8  7  1  0
  9  8  1  0
 10  9  1  0
 10  7  1  0
 11  5  1  0
 12 11  1  0
 13 12  1  1
 14 13  1  6
 15 14  1  0
 16 15  1  0
 16 14  1  0
 16 17  1  6
 18 16  1  0
 15 19  1  6
 20 19  1  0
 20 13  1  0
 21 20  1  0
 22 21  1  0
 23 22  1  0
 23 24  1  1
 25 23  1  0
 26 23  1  0
 22 27  1  6
 28 27  1  0
 29 28  1  0
 30 29  1  0
 30 31  1  1
 32 30  1  0
 33 30  1  0
 34 28  2  0
 35 21  2  0
 36 12  2  0
 37  2  1  0
M  END
