
     RDKit          3D

 16 17  0  0  0  0  0  0  0  0999 V2000
    8.5370    2.2820   22.7830 O   0  0  0  0  0  0  0  0  0  0  0  0
    9.8420    1.7080   22.6070 S   0  0  1  0  0  0  0  0  0  0  0  0
   10.3800    1.6460   21.2780 O   0  0  0  0  0  0  0  0  0  0  0  0
   10.9740    2.5740   23.6280 C   0  0  0  0  0  0  0  0  0  0  0  0
    9.8190    0.0680   23.2690 C   0  0  0  0  0  0  0  0  0  0  0  0
    9.5760   -0.1150   24.6190 C   0  0  0  0  0  0  0  0  0  0  0  0
    9.4170   -1.3950   25.1140 C   0  0  0  0  0  0  0  0  0  0  0  0
    9.5120   -2.5020   24.2770 C   0  0  0  0  0  0  0  0  0  0  0  0
    9.8000   -2.2970   22.9260 C   0  0  0  0  0  0  0  0  0  0  0  0
    9.9550   -1.0190   22.4210 C   0  0  0  0  0  0  0  0  0  0  0  0
    9.2780   -3.7900   24.7740 N   0  0  0  0  0  0  0  0  0  0  0  0
    8.9640   -3.9890   26.1960 C   0  0  0  0  0  0  0  0  0  0  0  0
    8.2550   -5.3130   26.4070 C   0  0  0  0  0  0  0  0  0  0  0  0
    9.0360   -6.4180   25.8100 N   0  0  0  0  0  0  0  0  0  0  0  0
    9.2990   -6.1820   24.3790 C   0  0  0  0  0  0  0  0  0  0  0  0
   10.0660   -4.8930   24.2180 C   0  0  0  0  0  0  0  0  0  0  0  0
  2  1  2  0
  3  2  2  0
  2  4  1  1
  5  2  1  0
  6  5  2  0
  7  6  1  0
  8  7  2  0
  9  8  1  0
 10  9  2  0
 10  5  1  0
 11  8  1  0
 12 11  1  0
 13 12  1  0
 14 13  1  0
 15 14  1  0
 16 15  1  0
 16 11  1  0
M  END
