
     RDKit          3D

 35 37  0  0  0  0  0  0  0  0999 V2000
    7.4720   -1.2460   21.5540 N   0  0  0  0  0  0  0  0  0  0  0  0
    7.0880   -4.5290   20.2300 C   0  0  0  0  0  0  0  0  0  0  0  0
    5.6020   -2.0730   20.5920 O   0  0  0  0  0  0  0  0  0  0  0  0
    7.0750   -3.6870   21.4790 C   0  0  0  0  0  0  0  0  0  0  0  0
    7.9570    2.0830   22.6420 N   0  0  0  0  0  0  0  0  0  0  0  0
    9.2810    1.3200   20.9600 O   0  0  0  0  0  0  0  0  0  0  0  0
    6.6520   -2.2730   21.1740 C   0  0  0  0  0  0  0  0  0  0  0  0
    6.6070    0.4310   17.5200 N   0  0  0  0  0  0  0  0  0  0  0  0
   10.6450    6.7020   24.1900 O   0  0  0  0  0  0  0  0  0  0  0  0
    7.1840    0.1900   21.2730 C   0  0  1  0  0  0  0  0  0  0  0  0
   13.0550   -2.6800   24.6560 O   0  0  0  0  0  0  0  0  0  0  0  0
    8.2530    1.2410   21.6210 C   0  0  0  0  0  0  0  0  0  0  0  0
    8.6830    3.2490   23.0030 C   0  0  0  0  0  0  0  0  0  0  0  0
    9.8530    3.1270   23.7820 C   0  0  0  0  0  0  0  0  0  0  0  0
   10.4200    1.7900   24.1820 C   0  0  0  0  0  0  0  0  0  0  0  0
   10.5100    4.2870   24.1760 C   0  0  0  0  0  0  0  0  0  0  0  0
   10.0390    5.5330   23.7940 C   0  0  0  0  0  0  0  0  0  0  0  0
   11.7940    6.6280   25.0410 C   0  0  0  0  0  0  0  0  0  0  0  0
    8.9080    5.6440   22.9980 C   0  0  0  0  0  0  0  0  0  0  0  0
    8.2190    4.5070   22.6130 C   0  0  0  0  0  0  0  0  0  0  0  0
    6.5230    0.4790   19.9310 C   0  0  0  0  0  0  0  0  0  0  0  0
    7.1240    0.1480   18.7230 C   0  0  0  0  0  0  0  0  0  0  0  0
    5.4350    1.0740   17.4940 C   0  0  0  0  0  0  0  0  0  0  0  0
    4.7530    1.4540   18.6350 C   0  0  0  0  0  0  0  0  0  0  0  0
    5.3070    1.1440   19.8630 C   0  0  0  0  0  0  0  0  0  0  0  0
    8.6630   -1.4810   22.3260 C   0  0  0  0  0  0  0  0  0  0  0  0
    9.8890   -1.6740   21.6920 C   0  0  0  0  0  0  0  0  0  0  0  0
   11.0530   -1.7580   22.4390 C   0  0  0  0  0  0  0  0  0  0  0  0
   11.0250   -1.6570   23.8230 C   0  0  0  0  0  0  0  0  0  0  0  0
    9.7910   -1.5410   24.4500 C   0  0  0  0  0  0  0  0  0  0  0  0
    8.6200   -1.4410   23.7180 C   0  0  0  0  0  0  0  0  0  0  0  0
   12.3040   -1.4780   24.6080 C   0  0  2  0  0  0  0  0  0  0  0  0
   13.2570   -0.5070   23.9460 C   0  0  0  0  0  0  0  0  0  0  0  0
   12.9000   -3.3700   25.8870 C   0  0  0  0  0  0  0  0  0  0  0  0
    8.1810   -3.8260   18.9680 S   0  0  0  0  0  0  0  0  0  0  0  0
  4  2  1  0
  7  4  1  0
  7  3  2  0
  7  1  1  0
 10  1  1  0
 10 12  1  6
 12  6  2  0
 12  5  1  0
 13  5  1  0
 14 13  2  0
 15 14  1  0
 16 14  1  0
 17 16  2  0
 17  9  1  0
 18  9  1  0
 19 17  1  0
 20 13  1  0
 20 19  2  0
 21 10  1  0
 22 21  1  0
 22  8  2  0
 23  8  1  0
 24 23  2  0
 25 24  1  0
 25 21  2  0
 26  1  1  0
 27 26  2  0
 28 27  1  0
 29 28  2  0
 30 29  1  0
 31 30  2  0
 31 26  1  0
 32 29  1  0
 32 11  1  0
 32 33  1  6
 34 11  1  0
  2 35  1  0
M  END
