
     RDKit          3D

 11 11  0  0  0  0  0  0  0  0999 V2000
    8.4560   -0.0200   27.4160 C   0  0  0  0  0  0  0  0  0  0  0  0
    9.0130   -0.5690   26.1210 C   0  0  0  0  0  0  0  0  0  0  0  0
   10.1480    0.2360   25.7080 N   0  0  0  0  0  0  0  0  0  0  0  0
   10.9740   -0.2060   24.6120 C   0  0  0  0  0  0  0  0  0  0  0  0
   10.6210   -1.3380   23.8890 C   0  0  0  0  0  0  0  0  0  0  0  0
   11.4090   -1.7520   22.8340 C   0  0  0  0  0  0  0  0  0  0  0  0
   12.5400   -1.0190   22.5250 C   0  0  0  0  0  0  0  0  0  0  0  0
   13.4340   -1.4590   21.3730 C   0  0  0  0  0  0  0  0  0  0  0  0
   14.1150   -1.7630   20.5170 N   0  0  0  0  0  0  0  0  0  0  0  0
   12.8370    0.1060   23.2930 C   0  0  0  0  0  0  0  0  0  0  0  0
   12.0560    0.4840   24.3030 N   0  0  0  0  0  0  0  0  0  0  0  0
  2  1  1  0
  3  2  1  0
  4  3  1  0
  5  4  2  0
  6  5  1  0
  7  6  2  0
  8  7  1  0
  9  8  3  0
 10  7  1  0
 11 10  2  0
 11  4  1  0
M  END
