
     RDKit          3D

 21 23  0  0  0  0  0  0  0  0999 V2000
    6.4260    0.6240   17.4240 N   0  0  0  0  0  0  0  0  0  0  0  0
    4.9150    0.9380   21.4540 C   0  0  0  0  0  0  0  0  0  0  0  0
    9.0010    0.6250   21.0410 O   0  0  0  0  0  0  0  0  0  0  0  0
    5.4280    0.7870   20.0450 C   0  0  0  0  0  0  0  0  0  0  0  0
    7.1940   -0.7350   20.7670 N   0  0  0  0  0  0  0  0  0  0  0  0
    4.8350    1.4830   18.9960 C   0  0  0  0  0  0  0  0  0  0  0  0
    9.8180   -0.6660   23.2860 N   0  0  0  0  0  0  0  0  0  0  0  0
    5.3610    1.3780   17.7240 C   0  0  0  0  0  0  0  0  0  0  0  0
    6.9990   -0.0570   18.4200 C   0  0  0  0  0  0  0  0  0  0  0  0
    6.5450   -0.0140   19.7390 C   0  0  0  0  0  0  0  0  0  0  0  0
    8.3600   -0.3820   21.3430 C   0  0  0  0  0  0  0  0  0  0  0  0
    8.8130   -1.3160   22.4520 C   0  0  0  0  0  0  0  0  0  0  0  0
    9.5570    0.0810   24.4110 C   0  0  0  0  0  0  0  0  0  0  0  0
   10.6940    0.6510   24.8710 C   0  0  0  0  0  0  0  0  0  0  0  0
   11.7510    0.2490   23.9900 C   0  0  2  0  0  0  0  0  0  0  0  0
   13.1070    0.5610   23.8770 C   0  0  0  0  0  0  0  0  0  0  0  0
   13.8640    0.0430   22.8410 C   0  0  0  0  0  0  0  0  0  0  0  0
   13.2590   -0.8160   21.9510 C   0  0  0  0  0  0  0  0  0  0  0  0
   11.9250   -1.1540   21.9980 C   0  0  0  0  0  0  0  0  0  0  0  0
   11.1740   -0.5920   23.0220 C   0  0  0  0  0  0  0  0  0  0  0  0
   14.0280   -1.4000   20.9940 F   0  0  0  0  0  0  0  0  0  0  0  0
  4  2  1  0
  6  4  1  0
  8  6  1  0
  8  1  1  0
  9  1  1  0
 10  4  1  0
 10  9  1  0
 10  5  1  0
 11  5  1  0
 11  3  1  0
 12 11  1  0
 12  7  1  0
 13  7  1  0
 14 13  1  0
 15 14  1  6
 16 15  1  0
 17 16  1  0
 18 17  1  0
 19 18  1  0
 20  7  1  0
 20 19  1  0
 20 15  1  0
 21 18  1  0
M  END
$$$$
