
     RDKit          3D

 41 45  0  0  0  0  0  0  0  0999 V2000
    6.1660   -4.0080   19.7850 O   0  0  0  0  0  0  0  0  0  0  0  0
    7.4130   -3.5160   20.1730 C   0  0  2  0  0  0  0  0  0  0  0  0
    7.9450   -4.1640   21.2940 C   0  0  0  0  0  0  0  0  0  0  0  0
    7.2000   -4.2650   22.4420 N   0  0  0  0  0  0  0  0  0  0  0  0
    7.9240   -4.9520   23.4470 C   0  0  0  0  0  0  0  0  0  0  0  0
    7.4590   -5.2550   24.7230 C   0  0  0  0  0  0  0  0  0  0  0  0
    8.3490   -5.9380   25.6280 C   0  0  0  0  0  0  0  0  0  0  0  0
    9.6670   -6.3070   25.2390 C   0  0  0  0  0  0  0  0  0  0  0  0
   10.1570   -5.9740   23.9820 C   0  0  0  0  0  0  0  0  0  0  0  0
    9.2610   -5.3030   23.1120 C   0  0  0  0  0  0  0  0  0  0  0  0
    9.5540   -4.7660   21.5320 S   0  0  0  0  0  0  0  0  0  0  0  0
    7.2570   -1.9600   20.3870 C   0  0  2  0  0  0  0  0  0  0  0  0
    6.5820   -1.2500   19.1840 C   0  0  0  0  0  0  0  0  0  0  0  0
    6.1580    0.1790   19.5750 C   0  0  2  0  0  0  0  0  0  0  0  0
    5.0020    0.2010   20.6220 C   0  0  0  0  0  0  0  0  0  0  0  0
    4.1540    1.4930   20.2230 C   0  0  0  0  0  0  0  0  0  0  0  0
    4.4400    1.5790   18.7720 N   0  0  0  0  0  0  0  0  0  0  0  0
    5.5130    0.9010   18.4020 C   0  0  0  0  0  0  0  0  0  0  0  0
    5.9540    0.9450   17.2500 O   0  0  0  0  0  0  0  0  0  0  0  0
    8.5600   -1.3680   20.8090 N   0  0  0  0  0  0  0  0  0  0  0  0
    8.7250   -0.8180   22.0190 C   0  0  0  0  0  0  0  0  0  0  0  0
   10.1590   -0.3980   22.2970 C   0  0  2  0  0  0  0  0  0  0  0  0
   10.8820   -1.4950   23.0860 C   0  0  0  0  0  0  0  0  0  0  0  0
   12.3590   -1.1590   23.1580 C   0  0  2  0  0  0  0  0  0  0  0  0
   13.0320   -1.3610   21.7890 C   0  0  0  0  0  0  0  0  0  0  0  0
   12.9970   -2.0350   24.2860 C   0  0  0  0  0  0  0  0  0  0  0  0
   10.1720    0.9360   22.9790 N   0  0  0  0  0  0  0  0  0  0  0  0
    9.8710    2.1100   22.3770 C   0  0  0  0  0  0  0  0  0  0  0  0
    9.9210    3.3030   23.1060 C   0  0  0  0  0  0  0  0  0  0  0  0
   10.2910    3.5580   24.4190 C   0  0  0  0  0  0  0  0  0  0  0  0
   10.0920    4.9060   24.6390 C   0  0  0  0  0  0  0  0  0  0  0  0
   10.2510    5.7460   25.7270 C   0  0  0  0  0  0  0  0  0  0  0  0
   10.7530    5.1660   26.8860 O   0  0  0  0  0  0  0  0  0  0  0  0
   10.8540    5.9900   28.1070 C   0  0  0  0  0  0  0  0  0  0  0  0
    9.9620    7.1140   25.6330 C   0  0  0  0  0  0  0  0  0  0  0  0
    9.4510    7.6250   24.4360 C   0  0  0  0  0  0  0  0  0  0  0  0
    9.2880    6.8010   23.3370 C   0  0  0  0  0  0  0  0  0  0  0  0
    9.6040    5.4840   23.4480 C   0  0  0  0  0  0  0  0  0  0  0  0
    9.4580    4.5060   22.5420 N   0  0  0  0  0  0  0  0  0  0  0  0
    9.4950    2.0370   21.1940 O   0  0  0  0  0  0  0  0  0  0  0  0
    7.8170   -0.7680   22.8610 O   0  0  0  0  0  0  0  0  0  0  0  0
  2  1  1  1
  3  2  1  0
  4  3  2  0
  5  4  1  0
  6  5  2  0
  7  6  1  0
  8  7  2  0
  9  8  1  0
 10  9  2  0
 10  5  1  0
 11  3  1  0
 11 10  1  0
 12  2  1  0
 12 13  1  6
 14 13  1  6
 15 14  1  0
 16 15  1  0
 17 16  1  0
 18 17  1  0
 18 14  1  0
 19 18  2  0
 20 12  1  0
 21 20  1  0
 22 21  1  0
 22 23  1  1
 24 23  1  0
 24 25  1  6
 26 24  1  0
 27 22  1  0
 28 27  1  0
 29 28  1  0
 30 29  2  0
 31 30  1  0
 32 31  2  0
 33 32  1  0
 34 33  1  0
 35 32  1  0
 36 35  2  0
 37 36  1  0
 38 31  1  0
 38 37  2  0
 39 29  1  0
 39 38  1  0
 40 28  2  0
 41 21  2  0
M  END
$$$$
