
     RDKit          3D

 43 46  0  0  0  0  0  0  0  0999 V2000
    6.0930   -5.2200   22.3670 C   0  0  0  0  0  0  0  0  0  0  0  0
    4.7950   -4.8260   23.0590 C   0  0  0  0  0  0  0  0  0  0  0  0
    4.6330   -3.5210   23.5290 C   0  0  0  0  0  0  0  0  0  0  0  0
   10.1600    1.2250   22.9520 N   0  0  0  0  0  0  0  0  0  0  0  0
   10.3090    1.2450   24.2960 C   0  0  0  0  0  0  0  0  0  0  0  0
   10.1050    2.4240   25.0150 C   0  0  0  0  0  0  0  0  0  0  0  0
    9.7070    3.6140   24.4020 C   0  0  0  0  0  0  0  0  0  0  0  0
    9.5160    3.6630   23.0050 C   0  0  0  0  0  0  0  0  0  0  0  0
   10.3410    0.0340   22.0920 C   0  0  1  0  0  0  0  0  0  0  0  0
    9.7620    2.4020   22.2780 C   0  0  0  0  0  0  0  0  0  0  0  0
   11.1490   -1.0660   22.7870 C   0  0  0  0  0  0  0  0  0  0  0  0
    9.6030    2.3510   21.0490 O   0  0  0  0  0  0  0  0  0  0  0  0
    3.4470   -3.1770   24.1760 C   0  0  0  0  0  0  0  0  0  0  0  0
    9.1170    4.7640   22.2870 N   0  0  0  0  0  0  0  0  0  0  0  0
    8.8410    5.9810   22.7710 C   0  0  0  0  0  0  0  0  0  0  0  0
    2.4250   -4.1200   24.3570 C   0  0  0  0  0  0  0  0  0  0  0  0
    8.4550    7.0500   21.8820 O   0  0  0  0  0  0  0  0  0  0  0  0
    2.5810   -5.4160   23.8760 C   0  0  0  0  0  0  0  0  0  0  0  0
    8.9150    6.2920   23.9380 O   0  0  0  0  0  0  0  0  0  0  0  0
    7.2200    7.7320   22.0190 C   0  0  2  0  0  0  0  0  0  0  0  0
    3.7710   -5.7640   23.2260 C   0  0  0  0  0  0  0  0  0  0  0  0
   12.4860   -1.4060   22.1490 C   0  0  1  0  0  0  0  0  0  0  0  0
   13.5680   -0.3550   21.8900 C   0  0  0  0  0  0  0  0  0  0  0  0
    6.9330    8.3970   20.6800 C   0  0  0  0  0  0  0  0  0  0  0  0
    7.4450    8.7860   23.0990 C   0  0  0  0  0  0  0  0  0  0  0  0
    6.1240    6.7200   22.3580 C   0  0  0  0  0  0  0  0  0  0  0  0
   13.7050   -1.3180   23.0550 C   0  0  0  0  0  0  0  0  0  0  0  0
    6.4180   -4.0650   20.2150 C   0  0  0  0  0  0  0  0  0  0  0  0
    8.9650   -0.5260   21.7670 C   0  0  0  0  0  0  0  0  0  0  0  0
    5.8930   -4.8080   21.0310 N   0  0  0  0  0  0  0  0  0  0  0  0
    8.0750   -0.4150   22.5890 O   0  0  0  0  0  0  0  0  0  0  0  0
    8.7210   -1.1640   20.6050 N   0  0  0  0  0  0  0  0  0  0  0  0
    7.3960   -1.7730   20.4020 C   0  0  1  0  0  0  0  0  0  0  0  0
    8.3880   -3.7360   21.5450 O   0  0  0  0  0  0  0  0  0  0  0  0
    5.7770   -4.0000   19.2170 O   0  0  0  0  0  0  0  0  0  0  0  0
    6.6210   -1.1510   19.2070 C   0  0  0  0  0  0  0  0  0  0  0  0
    6.2220    0.3050   19.4740 C   0  0  1  0  0  0  0  0  0  0  0  0
    5.7450    1.0370   18.2480 C   0  0  0  0  0  0  0  0  0  0  0  0
    6.3450    1.0370   17.1760 O   0  0  0  0  0  0  0  0  0  0  0  0
    4.6080    1.6750   18.5380 N   0  0  0  0  0  0  0  0  0  0  0  0
    3.9830    1.3760   19.8140 C   0  0  0  0  0  0  0  0  0  0  0  0
    5.0270    0.4390   20.4250 C   0  0  0  0  0  0  0  0  0  0  0  0
    7.7180   -3.2980   20.3430 C   0  0  1  0  0  0  0  0  0  0  0  0
  2  1  1  0
  3  2  2  0
  5  4  1  0
  6  5  2  0
  7  6  1  0
  8  7  2  0
  9  4  1  0
 10  8  1  0
 10  4  1  0
  9 11  1  1
 12 10  2  0
 13  3  1  0
 14  8  1  0
 15 14  1  0
 16 13  2  0
 17 15  1  0
 18 16  1  0
 19 15  2  0
 20 17  1  0
 21 18  2  0
 21  2  1  0
 22 11  1  1
 23 22  1  0
 20 24  1  6
 25 20  1  0
 26 20  1  0
 27 23  1  0
 27 22  1  0
 29  9  1  0
 30 28  1  0
 30  1  1  0
 31 29  2  0
 32 29  1  0
 33 32  1  0
 35 28  2  0
 33 36  1  6
 37 36  1  6
 38 37  1  0
 39 38  2  0
 40 38  1  0
 41 40  1  0
 42 41  1  0
 42 37  1  0
 43 34  1  1
 43 33  1  0
 43 28  1  0
M  END
$$$$
