
     RDKit          3D

 26 29  0  0  0  0  0  0  0  0999 V2000
    6.6420    1.0480   16.9340 O   0  0  0  0  0  0  0  0  0  0  0  0
    6.0480    0.8190   17.9860 C   0  0  0  0  0  0  0  0  0  0  0  0
    6.3720   -0.2570   18.8560 C   0  0  0  0  0  0  0  0  0  0  0  0
    5.0560    1.6600   18.4150 N   0  0  0  0  0  0  0  0  0  0  0  0
    4.3930    1.5370   19.6300 C   0  0  0  0  0  0  0  0  0  0  0  0
    4.7370    0.4830   20.5010 C   0  0  0  0  0  0  0  0  0  0  0  0
    4.0670    0.3650   21.7210 C   0  0  0  0  0  0  0  0  0  0  0  0
    3.0560    1.2550   22.0480 C   0  0  0  0  0  0  0  0  0  0  0  0
    2.7070    2.2680   21.1810 C   0  0  0  0  0  0  0  0  0  0  0  0
    3.3770    2.4280   19.9780 C   0  0  0  0  0  0  0  0  0  0  0  0
    5.7760   -0.4490   20.0600 C   0  0  0  0  0  0  0  0  0  0  0  0
    6.1620   -1.6540   20.8470 C   0  0  0  0  0  0  0  0  0  0  0  0
    5.6440   -2.7250   20.5710 O   0  0  0  0  0  0  0  0  0  0  0  0
    7.0730   -1.5350   21.8300 N   0  0  0  0  0  0  0  0  0  0  0  0
    7.3520   -2.6370   22.7620 C   0  0  0  0  0  0  0  0  0  0  0  0
    8.8370   -2.9770   22.7350 C   0  0  0  0  0  0  0  0  0  0  0  0
    7.8860   -0.3350   22.0730 C   0  0  0  0  0  0  0  0  0  0  0  0
    9.3700   -0.6910   22.0580 C   0  0  0  0  0  0  0  0  0  0  0  0
    9.6440   -1.7790   23.0060 N   0  0  0  0  0  0  0  0  0  0  0  0
   10.9830   -1.9610   23.4650 C   0  0  0  0  0  0  0  0  0  0  0  0
   11.2440   -2.7600   24.6010 C   0  0  0  0  0  0  0  0  0  0  0  0
   10.2140   -3.4260   25.1750 F   0  0  0  0  0  0  0  0  0  0  0  0
   12.0740   -1.3520   22.8480 C   0  0  0  0  0  0  0  0  0  0  0  0
   13.3530   -1.5230   23.3620 C   0  0  0  0  0  0  0  0  0  0  0  0
   13.5660   -2.2930   24.4940 C   0  0  0  0  0  0  0  0  0  0  0  0
   12.5060   -2.9210   25.1250 C   0  0  0  0  0  0  0  0  0  0  0  0
  2  1  2  0
  3  2  1  0
  4  2  1  0
  5  4  1  0
  6  5  2  0
  7  6  1  0
  8  7  2  0
  9  8  1  0
 10  9  2  0
 10  5  1  0
 11  6  1  0
 11  3  2  0
 12 11  1  0
 13 12  2  0
 14 12  1  0
 15 14  1  0
 16 15  1  0
 17 14  1  0
 18 17  1  0
 19 18  1  0
 19 16  1  0
 20 19  1  0
 21 20  2  0
 22 21  1  0
 23 20  1  0
 24 23  2  0
 25 24  1  0
 26 25  2  0
 26 21  1  0
M  END
