
     RDKit          3D

 22 24  0  0  0  0  0  0  0  0999 V2000
    7.2080   -2.9360   21.4110 N   0  0  0  0  0  0  0  0  0  0  0  0
    6.8430   -3.2910   20.1600 C   0  0  0  0  0  0  0  0  0  0  0  0
    8.8150   -3.2930   23.7270 C   0  0  2  0  0  0  0  0  0  0  0  0
   12.4390   -0.8800   22.2540 C   0  0  2  0  0  0  0  0  0  0  0  0
    8.1480   -1.8590   21.7550 C   0  0  0  0  0  0  0  0  0  0  0  0
   11.7140    0.3590   24.1780 C   0  0  0  0  0  0  0  0  0  0  0  0
    7.6990   -4.1020   23.5140 C   0  0  0  0  0  0  0  0  0  0  0  0
   10.4970   -0.3030   24.1430 C   0  0  0  0  0  0  0  0  0  0  0  0
   10.2250   -1.2410   23.1530 C   0  0  0  0  0  0  0  0  0  0  0  0
    9.7130   -4.9460   25.2430 C   0  0  0  0  0  0  0  0  0  0  0  0
   11.2050   -1.5280   22.2070 C   0  0  0  0  0  0  0  0  0  0  0  0
    6.6220   -3.5940   22.5900 C   0  0  0  0  0  0  0  0  0  0  0  0
   13.5060   -1.3020   21.3830 C   0  0  0  0  0  0  0  0  0  0  0  0
    9.8230   -3.7320   24.5860 C   0  0  0  0  0  0  0  0  0  0  0  0
    8.6080   -5.7390   25.0400 C   0  0  0  0  0  0  0  0  0  0  0  0
    7.3790   -2.4550   19.0140 C   0  0  0  0  0  0  0  0  0  0  0  0
   14.3760   -1.6250   20.7170 N   0  0  0  0  0  0  0  0  0  0  0  0
    6.0870   -4.2240   19.9460 O   0  0  0  0  0  0  0  0  0  0  0  0
   12.6810    0.0840   23.2290 C   0  0  0  0  0  0  0  0  0  0  0  0
    8.8560   -1.9100   23.1190 C   0  0  2  0  0  0  0  0  0  0  0  0
    7.6060   -5.3260   24.1730 C   0  0  0  0  0  0  0  0  0  0  0  0
    8.8540   -3.4010   18.6780 S   0  0  0  0  0  0  0  0  0  0  0  0
  2  1  1  0
  5  1  1  0
  7  3  1  0
  8  6  1  0
  9  8  1  0
 11  9  1  0
 11  4  1  0
 12  1  1  0
 12  7  1  0
  4 13  1  1
 14 10  1  0
  3 14  1  1
 15 10  1  0
 16  2  1  0
 17 13  1  0
 18  2  1  0
 19  6  1  0
 19  4  1  0
 20  5  1  0
 20  9  1  6
 20  3  1  0
 21 15  1  0
 21  7  1  0
 16 22  1  0
M  END
