
     RDKit          3D

 49 52  0  0  0  0  0  0  0  0999 V2000
   11.7130    4.3890   22.9230 C   0  0  0  0  0  0  0  0  0  0  0  0
   12.2030    3.8200   23.8520 O   0  0  0  0  0  0  0  0  0  0  0  0
   12.4230    5.4680   22.1740 N   0  0  0  0  0  0  0  0  0  0  0  0
   13.7960    5.9550   22.5360 C   0  0  2  0  0  0  0  0  0  0  0  0
   14.1950    6.9620   21.4520 C   0  0  0  0  0  0  0  0  0  0  0  0
   14.7990    4.7750   22.6830 C   0  0  0  0  0  0  0  0  0  0  0  0
   14.4470    6.1920   20.1480 C   0  0  0  0  0  0  0  0  0  0  0  0
   15.5290    4.2900   21.4110 C   0  0  0  0  0  0  0  0  0  0  0  0
   15.7220    5.3670   20.3370 C   0  0  0  0  0  0  0  0  0  0  0  0
   13.6440    6.7260   23.8900 C   0  0  0  0  0  0  0  0  0  0  0  0
   12.3530    8.0590   23.8820 S   0  0  2  0  0  0  0  0  0  0  0  0
   11.3760    7.4820   22.9300 O   0  0  0  0  0  0  0  0  0  0  0  0
   13.1460    9.2690   23.4130 O   0  0  0  0  0  0  0  0  0  0  0  0
   11.7520    8.1800   25.6400 C   0  0  1  0  0  0  0  0  0  0  0  0
   11.0550    6.8330   26.0450 C   0  0  0  0  0  0  0  0  0  0  0  0
   12.9780    8.4510   26.5730 C   0  0  0  0  0  0  0  0  0  0  0  0
   10.7470    9.3770   25.6830 C   0  0  0  0  0  0  0  0  0  0  0  0
   10.3380    4.0330   22.4790 N   0  0  0  0  0  0  0  0  0  0  0  0
    9.6730    2.9750   23.2080 C   0  0  1  0  0  0  0  0  0  0  0  0
    8.1810    3.2980   23.4570 C   0  0  1  0  0  0  0  0  0  0  0  0
    7.4060    2.0390   23.9020 C   0  0  0  0  0  0  0  0  0  0  0  0
    8.1900    4.3150   24.6160 C   0  0  0  0  0  0  0  0  0  0  0  0
    7.4710    3.8760   22.2140 C   0  0  0  0  0  0  0  0  0  0  0  0
    9.8700    1.6860   22.4080 C   0  0  0  0  0  0  0  0  0  0  0  0
    9.5400    1.5640   21.2600 O   0  0  0  0  0  0  0  0  0  0  0  0
   10.5050    0.5250   23.1210 N   0  0  0  0  0  0  0  0  0  0  0  0
   10.9190    0.4940   24.3860 C   0  0  0  0  0  0  0  0  0  0  0  0
   10.7390   -0.8470   22.3830 C   0  0  1  0  0  0  0  0  0  0  0  0
   11.7190   -1.4820   23.0770 C   0  0  2  0  0  0  0  0  0  0  0  0
   11.8550   -0.7450   24.4390 C   0  0  1  0  0  0  0  0  0  0  0  0
   13.1320   -1.1990   23.6730 C   0  0  1  0  0  0  0  0  0  0  0  0
   13.9470   -2.3250   24.3610 C   0  0  0  0  0  0  0  0  0  0  0  0
   13.8930   -0.0250   23.0140 C   0  0  0  0  0  0  0  0  0  0  0  0
    9.3670   -1.5400   22.3460 C   0  0  0  0  0  0  0  0  0  0  0  0
    8.7900   -1.7120   23.3630 O   0  0  0  0  0  0  0  0  0  0  0  0
    8.7160   -1.9260   21.0490 N   0  0  0  0  0  0  0  0  0  0  0  0
    7.4030   -2.5270   21.0940 C   0  0  1  0  0  0  0  0  0  0  0  0
    6.3160   -1.6460   20.4020 C   0  0  0  0  0  0  0  0  0  0  0  0
    6.8280   -0.2020   20.0210 C   0  0  0  0  0  0  0  0  0  0  0  0
    5.7570    0.9310   19.8170 C   0  0  0  0  0  0  0  0  0  0  0  0
    5.2510    0.9890   18.3410 C   0  0  0  0  0  0  0  0  0  0  0  0
    8.5020   -4.5620   21.1320 O   0  0  0  0  0  0  0  0  0  0  0  0
    7.5860   -3.8500   20.4270 C   0  0  1  0  0  0  0  0  0  0  0  0
    5.4280   -4.5250   19.7670 O   0  0  0  0  0  0  0  0  0  0  0  0
    6.0790   -5.5410   21.7680 N   0  0  0  0  0  0  0  0  0  0  0  0
    4.8300   -6.1790   22.0560 C   0  0  2  0  0  0  0  0  0  0  0  0
    3.8130   -5.1850   22.6630 C   0  0  0  0  0  0  0  0  0  0  0  0
    4.4860   -6.2450   23.5560 C   0  0  0  0  0  0  0  0  0  0  0  0
    6.3020   -4.6290   20.6010 C   0  0  0  0  0  0  0  0  0  0  0  0
  2  1  2  0
  3  1  1  0
  4  3  1  0
  5  4  1  0
  6  4  1  0
  7  5  1  0
  8  6  1  0
  9  8  1  0
  9  7  1  0
  4 10  1  1
 11 10  1  1
 12 11  2  0
 13 11  2  0
 14 11  1  0
 14 15  1  1
 16 14  1  0
 17 14  1  0
 18  1  1  0
 19 18  1  6
 20 19  1  0
 20 21  1  1
 22 20  1  0
 23 20  1  0
 24 19  1  0
 25 24  2  0
 26 24  1  0
 27 26  1  0
 28 26  1  0
 29 28  1  6
 30 29  1  0
 30 27  1  6
 31 30  1  0
 31 29  1  0
 31 32  1  1
 33 31  1  0
 28 34  1  1
 35 34  2  0
 36 34  1  0
 37 36  1  0
 37 38  1  6
 39 38  1  0
 40 39  1  0
 41 40  1  0
 43 42  1  1
 43 37  1  0
 46 45  1  1
 47 46  1  0
 48 46  1  0
 48 47  1  0
 49 44  2  0
 49 45  1  0
 49 43  1  0
M  END
