
     RDKit          3D

 25 27  0  0  0  0  0  0  0  0999 V2000
    9.2020   -0.6520   22.4730 N   0  0  0  0  0  0  0  0  0  0  0  0
   12.8620   -0.7230   22.1690 C   0  0  0  0  0  0  0  0  0  0  0  0
    7.6290   -5.4940   26.5970 O   0  0  0  0  0  0  0  0  0  0  0  0
   14.0740   -1.5780   21.2600 Cl  0  0  0  0  0  0  0  0  0  0  0  0
   13.2510    0.2590   23.0600 C   0  0  0  0  0  0  0  0  0  0  0  0
    8.5750   -3.3780   24.9310 N   0  0  0  0  0  0  0  0  0  0  0  0
    9.1570    0.9300   20.8500 O   0  0  0  0  0  0  0  0  0  0  0  0
   12.2790    0.8880   23.8270 C   0  0  0  0  0  0  0  0  0  0  0  0
    7.4190   -0.5340   20.9610 N   0  0  0  0  0  0  0  0  0  0  0  0
   10.9430    0.5350   23.7010 C   0  0  0  0  0  0  0  0  0  0  0  0
    6.5740    0.6150   17.5760 N   0  0  0  0  0  0  0  0  0  0  0  0
   10.5720   -0.4400   22.7760 C   0  0  0  0  0  0  0  0  0  0  0  0
   11.5410   -1.0790   22.0070 C   0  0  0  0  0  0  0  0  0  0  0  0
    8.3990   -1.4480   23.4090 C   0  0  0  0  0  0  0  0  0  0  0  0
    8.9810   -2.8160   23.6360 C   0  0  0  0  0  0  0  0  0  0  0  0
    9.4400   -4.5130   25.3040 C   0  0  0  0  0  0  0  0  0  0  0  0
    9.0020   -5.0830   26.6290 C   0  0  0  0  0  0  0  0  0  0  0  0
    6.7760   -4.3910   26.2550 C   0  0  0  0  0  0  0  0  0  0  0  0
    7.1550   -3.7920   24.9190 C   0  0  0  0  0  0  0  0  0  0  0  0
    8.6050   -0.0260   21.3730 C   0  0  0  0  0  0  0  0  0  0  0  0
    6.6840    0.0490   19.9110 C   0  0  0  0  0  0  0  0  0  0  0  0
    5.5210    0.7690   20.1490 C   0  0  0  0  0  0  0  0  0  0  0  0
    4.8940    1.4090   19.0980 C   0  0  0  0  0  0  0  0  0  0  0  0
    5.4500    1.2970   17.8330 C   0  0  0  0  0  0  0  0  0  0  0  0
    7.1670    0.0020   18.6030 C   0  0  0  0  0  0  0  0  0  0  0  0
  4  2  1  0
  5  2  2  0
  8  5  1  0
 10  8  2  0
 12  1  1  0
 12 10  1  0
 13 12  2  0
 13  2  1  0
 14  1  1  0
 15 14  1  0
 15  6  1  0
 16  6  1  0
 17  3  1  0
 17 16  1  0
 18  3  1  0
 19 18  1  0
 19  6  1  0
 20  9  1  0
 20  7  2  0
 20  1  1  0
 21  9  1  0
 22 21  1  0
 23 22  2  0
 24 23  1  0
 24 11  2  0
 25 21  2  0
 25 11  1  0
M  END
