
     RDKit          3D

 15 16  0  0  0  0  0  0  0  0999 V2000
    7.3300  -23.3010   -1.3190 C   0  0  0  0  0  0  0  0  0  0  0  0
    7.0160  -21.8260   -1.0000 C   0  0  1  0  0  0  0  0  0  0  0  0
    7.6020  -20.9230   -2.0840 C   0  0  0  0  0  0  0  0  0  0  0  0
    7.0970  -19.5730   -2.1560 N   0  0  0  0  0  0  0  0  0  0  0  0
    7.5980  -18.6000   -3.1070 C   0  0  0  0  0  0  0  0  0  0  0  0
    7.1450  -17.5030   -3.1290 O   0  0  0  0  0  0  0  0  0  0  0  0
    8.7070  -18.9610   -4.0980 C   0  0  0  0  0  0  0  0  0  0  0  0
    9.2180  -17.7410   -4.6940 N   0  0  0  0  0  0  0  0  0  0  0  0
    9.9320  -16.8260   -4.0630 C   0  0  0  0  0  0  0  0  0  0  0  0
   10.2160  -15.8180   -4.9620 C   0  0  0  0  0  0  0  0  0  0  0  0
    9.6270  -16.1810   -6.1630 C   0  0  0  0  0  0  0  0  0  0  0  0
    9.0270  -17.3450   -5.9860 N   0  0  0  0  0  0  0  0  0  0  0  0
    6.0570  -19.2630   -1.2070 C   0  0  0  0  0  0  0  0  0  0  0  0
    5.0990  -20.3980   -0.8490 C   0  0  0  0  0  0  0  0  0  0  0  0
    5.6210  -21.7100   -0.8680 O   0  0  0  0  0  0  0  0  0  0  0  0
  2  1  1  6
  3  2  1  0
  4  3  1  0
  5  4  1  0
  6  5  2  0
  7  5  1  0
  8  7  1  0
  9  8  1  0
 10  9  2  0
 11 10  1  0
 12  8  1  0
 12 11  2  0
 13  4  1  0
 14 13  1  0
 15 14  1  0
 15  2  1  0
M  END
