
     RDKit          3D

 19 20  0  0  0  0  0  0  0  0999 V2000
   14.4380   -1.9770   20.5430 N   0  0  0  0  0  0  0  0  0  0  0  0
   13.7200   -1.4490   21.2590 C   0  0  0  0  0  0  0  0  0  0  0  0
   12.8030   -0.8190   22.1720 C   0  0  0  0  0  0  0  0  0  0  0  0
   13.2800    0.0200   23.1770 C   0  0  0  0  0  0  0  0  0  0  0  0
   12.3940    0.5780   24.0830 C   0  0  0  0  0  0  0  0  0  0  0  0
   11.0380    0.3170   23.9790 C   0  0  0  0  0  0  0  0  0  0  0  0
   11.4370   -1.0770   22.0680 C   0  0  0  0  0  0  0  0  0  0  0  0
   10.5450   -0.5020   22.9700 C   0  0  0  0  0  0  0  0  0  0  0  0
    9.0590   -0.7300   22.8160 C   0  0  0  0  0  0  0  0  0  0  0  0
    8.5540    0.0500   21.6190 C   0  0  0  0  0  0  0  0  0  0  0  0
    9.1900    0.9860   21.1420 O   0  0  0  0  0  0  0  0  0  0  0  0
    7.3920   -0.3970   21.1110 N   0  0  0  0  0  0  0  0  0  0  0  0
    6.7360    0.1530   19.9930 C   0  0  0  0  0  0  0  0  0  0  0  0
    5.5270    0.8410   20.1730 C   0  0  0  0  0  0  0  0  0  0  0  0
    4.9240    1.0470   21.5400 C   0  0  0  0  0  0  0  0  0  0  0  0
    7.2600    0.0360   18.7030 C   0  0  0  0  0  0  0  0  0  0  0  0
    6.6650    0.5520   17.6210 N   0  0  0  0  0  0  0  0  0  0  0  0
    5.5080    1.1970   17.8030 C   0  0  0  0  0  0  0  0  0  0  0  0
    4.9160    1.3670   19.0390 C   0  0  0  0  0  0  0  0  0  0  0  0
  2  1  3  0
  3  2  1  0
  4  3  2  0
  5  4  1  0
  6  5  2  0
  7  3  1  0
  8  7  2  0
  8  6  1  0
  9  8  1  0
 10  9  1  0
 11 10  2  0
 12 10  1  0
 13 12  1  0
 14 13  2  0
 15 14  1  0
 16 13  1  0
 17 16  2  0
 18 17  1  0
 19 18  2  0
 19 14  1  0
M  END
