
     RDKit          3D

 26 28  0  0  0  0  0  0  0  0999 V2000
   10.9910    5.1330   22.8560 N   0  0  0  0  0  0  0  0  0  0  0  0
    8.7290    5.9630   22.7500 C   0  0  0  0  0  0  0  0  0  0  0  0
   10.1760    6.2060   24.6440 O   0  0  0  0  0  0  0  0  0  0  0  0
   10.0210    5.7860   23.4990 C   0  0  0  0  0  0  0  0  0  0  0  0
   10.4550    1.0070   24.2080 N   0  0  0  0  0  0  0  0  0  0  0  0
    5.9650   -3.9000   19.7820 O   0  0  0  0  0  0  0  0  0  0  0  0
   12.2790    4.8450   23.4700 C   0  0  0  0  0  0  0  0  0  0  0  0
    8.8640   -1.7560   23.0040 N   0  0  0  0  0  0  0  0  0  0  0  0
   12.8690    3.5390   22.9820 C   0  0  0  0  0  0  0  0  0  0  0  0
    6.9960   -2.2160   20.8730 N   0  0  0  0  0  0  0  0  0  0  0  0
   12.0870    2.3310   23.4100 C   0  0  1  0  0  0  0  0  0  0  0  0
   10.9090    2.2960   24.1010 C   0  0  0  0  0  0  0  0  0  0  0  0
   11.3500    0.1720   23.5830 C   0  0  1  0  0  0  0  0  0  0  0  0
   11.2950   -1.2100   23.3510 C   0  0  1  0  0  0  0  0  0  0  0  0
   10.1020   -2.0510   23.7470 C   0  0  0  0  0  0  0  0  0  0  0  0
    7.9340   -2.9130   23.0420 C   0  0  0  0  0  0  0  0  0  0  0  0
    6.6540   -2.6310   22.2410 C   0  0  0  0  0  0  0  0  0  0  0  0
    7.8640   -1.0330   20.8750 C   0  0  0  0  0  0  0  0  0  0  0  0
    9.1490   -1.3700   21.6000 C   0  0  0  0  0  0  0  0  0  0  0  0
    6.6620   -2.8960   19.7520 C   0  0  0  0  0  0  0  0  0  0  0  0
    7.2070   -2.3770   18.4340 C   0  0  0  0  0  0  0  0  0  0  0  0
   12.3550   -1.7850   22.6440 C   0  0  0  0  0  0  0  0  0  0  0  0
   13.4110   -1.0210   22.1710 C   0  0  0  0  0  0  0  0  0  0  0  0
   13.4400    0.3490   22.3810 C   0  0  0  0  0  0  0  0  0  0  0  0
   12.4030    0.9630   23.0830 C   0  0  0  0  0  0  0  0  0  0  0  0
    8.6720   -3.3210   18.3720 S   0  0  0  0  0  0  0  0  0  0  0  0
  4  3  1  0
  4  2  1  0
  4  1  1  0
  7  1  1  0
  9  7  1  0
 11  9  1  6
 12  5  1  0
 12 11  1  0
 13  5  1  6
 14 13  1  0
 15  8  1  0
 14 15  1  6
 16  8  1  0
 17 10  1  0
 17 16  1  0
 18 10  1  0
 19 18  1  0
 19  8  1  0
 20 10  1  0
 20  6  1  0
 21 20  1  0
 22 14  1  0
 23 22  1  0
 24 23  1  0
 25 24  1  0
 25 13  1  0
 25 11  1  0
 21 26  1  0
M  END
