
     RDKit          3D

 21 22  0  0  0  0  0  0  0  0999 V2000
   13.9480   -1.8460   21.3640 Cl  0  0  0  0  0  0  0  0  0  0  0  0
   12.7510   -0.8880   22.1890 C   0  0  0  0  0  0  0  0  0  0  0  0
   13.1390    0.2740   22.8240 C   0  0  0  0  0  0  0  0  0  0  0  0
   12.1770    1.0220   23.4840 C   0  0  0  0  0  0  0  0  0  0  0  0
   10.8510    0.6160   23.4830 C   0  0  0  0  0  0  0  0  0  0  0  0
   11.4340   -1.3050   22.1750 C   0  0  0  0  0  0  0  0  0  0  0  0
   10.4620   -0.5360   22.8070 C   0  0  2  0  0  0  0  0  0  0  0  0
    8.9920   -0.8920   22.6400 C   0  0  1  0  0  0  0  0  0  0  0  0
    8.2000   -0.6090   23.9260 C   0  0  0  0  0  0  0  0  0  0  0  0
    8.4420   -1.6140   25.0290 C   0  0  0  0  0  0  0  0  0  0  0  0
    8.0850   -1.0620   26.3710 C   0  0  0  0  0  0  0  0  0  0  0  0
    8.4120   -0.0700   21.4890 C   0  0  0  0  0  0  0  0  0  0  0  0
    8.8740    1.0190   21.1710 O   0  0  0  0  0  0  0  0  0  0  0  0
    7.3220   -0.6100   20.8990 N   0  0  0  0  0  0  0  0  0  0  0  0
    6.5880    0.0190   19.8650 C   0  0  1  0  0  0  0  0  0  0  0  0
    5.4310    0.7550   20.1730 C   0  0  1  0  0  0  0  0  0  0  0  0
    4.9550    0.9420   21.5920 C   0  0  0  0  0  0  0  0  0  0  0  0
    4.7740    1.3810   19.1200 C   0  0  0  0  0  0  0  0  0  0  0  0
    5.2840    1.2830   17.8420 C   0  0  0  0  0  0  0  0  0  0  0  0
    6.3890    0.5940   17.5390 N   0  0  0  0  0  0  0  0  0  0  0  0
    7.0210   -0.0240   18.5410 C   0  0  0  0  0  0  0  0  0  0  0  0
  2  1  1  0
  3  2  1  0
  4  3  1  0
  5  4  1  0
  6  2  1  0
  7  5  1  6
  7  6  1  0
  8  7  1  0
  8  9  1  1
 10  9  1  0
 11 10  1  0
 12  8  1  0
 13 12  1  0
 14 12  1  0
 15 14  1  1
 16 15  1  0
 16 17  1  1
 18 16  1  0
 19 18  1  0
 20 19  1  0
 21 20  1  0
 21 15  1  0
M  END
$$$$
