
     RDKit          3D

 15 16  0  0  0  0  0  0  0  0999 V2000
   23.8450   -8.1280    3.6010 N   0  0  0  0  0  0  0  0  0  0  0  0
   25.2160   -7.2610    5.4510 C   0  0  0  0  0  0  0  0  0  0  0  0
   23.7970   -7.2960    4.8390 C   0  0  2  0  0  0  0  0  0  0  0  0
   22.7130   -7.7560    5.8430 C   0  0  0  0  0  0  0  0  0  0  0  0
   24.2460   -9.5550    3.7570 C   0  0  0  0  0  0  0  0  0  0  0  0
   24.0580   -7.4470    2.3630 C   0  0  0  0  0  0  0  0  0  0  0  0
   24.0920   -5.3990    1.1510 C   0  0  0  0  0  0  0  0  0  0  0  0
   24.5560   -7.3000   -0.0240 C   0  0  0  0  0  0  0  0  0  0  0  0
   25.1560   -7.8030   -2.4710 C   0  0  0  0  0  0  0  0  0  0  0  0
   24.6240   -9.4770    0.6690 C   0  0  0  0  0  0  0  0  0  0  0  0
   24.3930   -8.1330    1.1450 C   0  0  0  0  0  0  0  0  0  0  0  0
   23.9070   -6.0560    2.3480 N   0  0  0  0  0  0  0  0  0  0  0  0
   24.4130   -5.9140   -0.0610 N   0  0  0  0  0  0  0  0  0  0  0  0
   24.8660   -8.1690   -1.0730 N   0  0  0  0  0  0  0  0  0  0  0  0
   24.8990   -9.4740   -0.6480 N   0  0  0  0  0  0  0  0  0  0  0  0
  3  1  1  0
  3  2  1  1
  4  3  1  0
  5  1  1  0
  6  1  1  0
 11 10  1  0
 11  8  1  0
 11  6  2  0
 12  6  1  0
 12  7  2  0
 13  8  2  0
 13  7  1  0
 14  9  1  0
 14  8  1  0
 15 14  1  0
 15 10  2  0
M  END
