
     RDKit          3D

 20 21  0  0  0  0  0  0  0  0999 V2000
    6.5120    0.5230   17.2660 N   0  0  0  0  0  0  0  0  0  0  0  0
    4.0310    1.4760   21.5400 C   0  0  0  0  0  0  0  0  0  0  0  0
    5.2150    0.7550   21.1880 O   0  0  0  0  0  0  0  0  0  0  0  0
    5.5620    0.6980   19.8650 C   0  0  0  0  0  0  0  0  0  0  0  0
    7.4050   -0.6020   20.7000 N   0  0  0  0  0  0  0  0  0  0  0  0
    8.8380    1.1290   21.0540 O   0  0  0  0  0  0  0  0  0  0  0  0
    4.8850    1.3360   18.8370 C   0  0  0  0  0  0  0  0  0  0  0  0
    8.3230   -1.9100   22.8850 O   0  0  0  0  0  0  0  0  0  0  0  0
    5.4070    1.2180   17.5630 C   0  0  0  0  0  0  0  0  0  0  0  0
    7.1460   -0.0950   18.2680 C   0  0  0  0  0  0  0  0  0  0  0  0
    6.7280   -0.0450   19.5940 C   0  0  0  0  0  0  0  0  0  0  0  0
    8.3500    0.0590   21.4100 C   0  0  0  0  0  0  0  0  0  0  0  0
    8.8410   -0.5980   22.6970 C   0  0  2  0  0  0  0  0  0  0  0  0
   10.3250   -0.4460   22.9610 C   0  0  0  0  0  0  0  0  0  0  0  0
   10.7860    0.4900   23.8780 C   0  0  0  0  0  0  0  0  0  0  0  0
   12.1390    0.7730   23.9810 C   0  0  0  0  0  0  0  0  0  0  0  0
   13.0560    0.1030   23.1850 C   0  0  0  0  0  0  0  0  0  0  0  0
   12.5910   -0.8680   22.3200 C   0  0  0  0  0  0  0  0  0  0  0  0
   11.2440   -1.1420   22.1850 C   0  0  0  0  0  0  0  0  0  0  0  0
   13.8410   -1.9390   21.3750 Br  0  0  0  0  0  0  0  0  0  0  0  0
  3  2  1  0
  4  3  1  0
  7  4  2  0
  9  7  1  0
  9  1  2  0
 10  1  1  0
 11 10  2  0
 11  5  1  0
 11  4  1  0
 12  6  2  0
 12  5  1  0
 13 12  1  0
 13  8  1  6
 14 13  1  0
 15 14  2  0
 16 15  1  0
 17 16  2  0
 18 17  1  0
 19 14  1  0
 19 18  2  0
 20 18  1  0
M  END
