
     RDKit          3D

 17 18  0  0  0  0  0  0  0  0999 V2000
    7.0710   -2.9690   21.0210 N   0  0  0  0  0  0  0  0  0  0  0  0
    7.2590   -2.5880   18.5860 C   0  0  0  0  0  0  0  0  0  0  0  0
    5.8660   -4.2170   19.6060 O   0  0  0  0  0  0  0  0  0  0  0  0
    6.6770   -3.3160   19.7790 C   0  0  0  0  0  0  0  0  0  0  0  0
    8.7940   -5.3630   27.4630 C   0  0  0  0  0  0  0  0  0  0  0  0
    6.6430   -3.7900   22.1550 C   0  0  0  0  0  0  0  0  0  0  0  0
    7.8120   -4.1020   23.0560 C   0  0  0  0  0  0  0  0  0  0  0  0
    8.9060   -2.0460   22.4250 C   0  0  0  0  0  0  0  0  0  0  0  0
    7.8180   -1.7610   21.4040 C   0  0  0  0  0  0  0  0  0  0  0  0
    8.5180   -2.5530   24.8490 C   0  0  0  0  0  0  0  0  0  0  0  0
    8.8070   -3.6480   25.7170 C   0  0  0  0  0  0  0  0  0  0  0  0
    9.6990   -4.6700   25.4620 C   0  0  0  0  0  0  0  0  0  0  0  0
    9.5670   -5.7040   26.4090 C   0  0  0  0  0  0  0  0  0  0  0  0
    8.3730   -2.8400   23.5310 N   0  0  0  0  0  0  0  0  0  0  0  0
    8.4170   -1.4130   25.2970 O   0  0  0  0  0  0  0  0  0  0  0  0
    8.0370   -3.8600   27.2430 S   0  0  0  0  0  0  0  0  0  0  0  0
    8.8750   -3.3220   18.2690 S   0  0  0  0  0  0  0  0  0  0  0  0
  4  3  1  0
  4  2  1  0
  4  1  1  0
  6  1  1  0
  7  6  1  0
  9  1  1  0
  9  8  1  0
 11 10  1  0
 12 11  1  0
 13 12  1  0
 13  5  1  0
 14 10  1  0
 14  8  1  0
 14  7  1  0
 15 10  1  0
 16 11  1  0
 16  5  1  0
  2 17  1  0
M  END
$$$$
