
     RDKit          3D

 17 18  0  0  0  0  0  0  0  0999 V2000
    7.0030   -2.9300   21.0080 N   0  0  0  0  0  0  0  0  0  0  0  0
    7.1910   -2.5550   18.5720 C   0  0  0  0  0  0  0  0  0  0  0  0
    5.8000   -4.1840   19.5950 O   0  0  0  0  0  0  0  0  0  0  0  0
    6.6100   -3.2810   19.7670 C   0  0  0  0  0  0  0  0  0  0  0  0
    8.3030   -2.7920   23.5190 N   0  0  0  0  0  0  0  0  0  0  0  0
    8.3440   -1.3610   25.2810 O   0  0  0  0  0  0  0  0  0  0  0  0
    6.5760   -3.7490   22.1430 C   0  0  0  0  0  0  0  0  0  0  0  0
    7.7450   -4.0570   23.0470 C   0  0  0  0  0  0  0  0  0  0  0  0
    8.8350   -2.0000   22.4100 C   0  0  0  0  0  0  0  0  0  0  0  0
    7.7470   -1.7200   21.3880 C   0  0  0  0  0  0  0  0  0  0  0  0
    8.4470   -2.5020   24.8360 C   0  0  0  0  0  0  0  0  0  0  0  0
    8.7380   -3.5940   25.7070 C   0  0  0  0  0  0  0  0  0  0  0  0
    9.6320   -4.6150   25.4540 C   0  0  0  0  0  0  0  0  0  0  0  0
    9.5020   -5.6470   26.4040 C   0  0  0  0  0  0  0  0  0  0  0  0
    8.7270   -5.3050   27.4570 C   0  0  0  0  0  0  0  0  0  0  0  0
    7.9670   -3.8040   27.2330 S   0  0  0  0  0  0  0  0  0  0  0  0
    8.8080   -3.2860   18.2580 S   0  0  0  0  0  0  0  0  0  0  0  0
  4  3  2  0
  4  2  1  0
  4  1  1  0
  7  1  1  0
  8  7  1  0
  8  5  1  0
  9  5  1  0
 10  1  1  0
 10  9  1  0
 11  6  2  0
 11  5  1  0
 12 11  1  0
 13 12  2  0
 14 13  1  0
 15 14  2  0
 16 12  1  0
 16 15  1  0
  2 17  1  0
M  END
