
     RDKit          3D

 16 17  0  0  0  0  0  0  0  0999 V2000
    8.8800    0.8730   20.7130 O   0  0  0  0  0  0  0  0  0  0  0  0
    8.4470   -0.1940   21.1400 C   0  0  0  0  0  0  0  0  0  0  0  0
    9.1390   -0.9250   22.0930 N   0  0  0  0  0  0  0  0  0  0  0  0
   10.3550   -0.4610   22.5860 C   0  0  0  0  0  0  0  0  0  0  0  0
   11.2640   -1.1950   23.2880 C   0  0  0  0  0  0  0  0  0  0  0  0
   12.4420   -0.4690   23.5700 C   0  0  0  0  0  0  0  0  0  0  0  0
   10.9400    1.1410   22.2960 S   0  0  0  0  0  0  0  0  0  0  0  0
   12.4340    0.8040   23.0890 C   0  0  0  0  0  0  0  0  0  0  0  0
   13.5210    1.8270   23.1200 C   0  0  0  0  0  0  0  0  0  0  0  0
    7.2610   -0.7270   20.7360 N   0  0  0  0  0  0  0  0  0  0  0  0
    6.3830   -0.0970   19.8310 C   0  0  0  0  0  0  0  0  0  0  0  0
    6.7070   -0.0030   18.4780 C   0  0  0  0  0  0  0  0  0  0  0  0
    5.9960    0.7150   17.6010 N   0  0  0  0  0  0  0  0  0  0  0  0
    4.9290    1.3760   18.0660 C   0  0  0  0  0  0  0  0  0  0  0  0
    4.5170    1.3320   19.3840 C   0  0  0  0  0  0  0  0  0  0  0  0
    5.2520    0.5740   20.2780 C   0  0  0  0  0  0  0  0  0  0  0  0
  2  1  2  0
  3  2  1  0
  4  3  1  0
  5  4  2  0
  6  5  1  0
  7  4  1  0
  8  7  1  0
  8  6  2  0
  9  8  1  0
 10  2  1  0
 11 10  1  0
 12 11  2  0
 13 12  1  0
 14 13  2  0
 15 14  1  0
 16 15  2  0
 16 11  1  0
M  END
