
     RDKit          3D

 15 16  0  0  0  0  0  0  0  0999 V2000
   22.4860   14.9650    8.5220 C   0  0  0  0  0  0  0  0  0  0  0  0
   21.3720   14.8800    7.4810 C   0  0  2  0  0  0  0  0  0  0  0  0
   20.6590   13.5380    7.7240 C   0  0  2  0  0  0  0  0  0  0  0  0
   21.1390   12.4400    6.9210 C   0  0  0  0  0  0  0  0  0  0  0  0
   22.4500   12.6040    6.3490 C   0  0  0  0  0  0  0  0  0  0  0  0
   22.6760   13.9360    5.6490 C   0  0  0  0  0  0  0  0  0  0  0  0
   22.5480   16.1050    5.9580 C   0  0  0  0  0  0  0  0  0  0  0  0
   21.7420   17.3670    5.6490 C   0  0  0  0  0  0  0  0  0  0  0  0
   21.3740   17.6210    4.3330 C   0  0  0  0  0  0  0  0  0  0  0  0
   20.6620   18.7710    4.0200 C   0  0  0  0  0  0  0  0  0  0  0  0
   20.3320   19.6740    5.0200 C   0  0  0  0  0  0  0  0  0  0  0  0
   20.7070   19.4320    6.3340 C   0  0  0  0  0  0  0  0  0  0  0  0
   21.4230   18.2810    6.6490 C   0  0  0  0  0  0  0  0  0  0  0  0
   21.9010   15.0630    6.1360 N   0  0  0  0  0  0  0  0  0  0  0  0
   19.2920   13.7270    7.4800 O   0  0  0  0  0  0  0  0  0  0  0  0
  2  1  1  1
  3  2  1  0
  4  3  1  0
  5  4  1  0
  6  5  1  0
  8  7  1  0
  9  8  2  0
 10  9  1  0
 11 10  2  0
 12 11  1  0
 13 12  2  0
 13  8  1  0
 14  2  1  0
 14  7  1  0
 14  6  1  0
  3 15  1  6
M  END
