
     RDKit          3D

  3  2  0  0  0  0  0  0  0  0999 V2000
    7.7260   -5.4500   22.8210 S   0  0  0  0  0  0  0  0  0  0  0  0
    8.9960   -4.0530   21.5320 Zn  0  0  0  0  0  2  0  0  0  0  0  0
    8.5340   -2.3720   23.0140 S   0  0  0  0  0  0  0  0  0  0  0  0
  2  1  1  0
  3  2  1  0
M  END
