
     RDKit          3D

 21 22  0  0  0  0  0  0  0  0999 V2000
    7.4330   -0.3620   21.0330 N   0  0  0  0  0  0  0  0  0  0  0  0
    6.9890   -0.2840   24.3740 C   0  0  0  0  0  0  0  0  0  0  0  0
    8.9100   -1.7920   22.8670 O   0  0  0  0  0  0  0  0  0  0  0  0
   13.9380   -1.7470   21.4730 Cl  0  0  0  0  0  0  0  0  0  0  0  0
    8.4200    0.1900   24.1560 C   0  0  0  0  0  0  0  0  0  0  0  0
    6.4740    0.5440   17.5830 N   0  0  0  0  0  0  0  0  0  0  0  0
    8.9110    1.3410   21.2100 O   0  0  0  0  0  0  0  0  0  0  0  0
    9.0970   -0.3800   22.8900 C   0  0  2  0  0  0  0  0  0  0  0  0
    8.4750    0.2750   21.6130 C   0  0  0  0  0  0  0  0  0  0  0  0
    6.6810    0.1500   19.9470 C   0  0  2  0  0  0  0  0  0  0  0  0
    7.0840   -0.0290   18.6250 C   0  0  0  0  0  0  0  0  0  0  0  0
    5.4090    1.3120   17.8390 C   0  0  0  0  0  0  0  0  0  0  0  0
    4.9120    1.5240   19.1080 C   0  0  0  0  0  0  0  0  0  0  0  0
    5.5450    0.9450   20.2020 C   0  0  0  0  0  0  0  0  0  0  0  0
    5.0360    1.1880   21.5990 C   0  0  0  0  0  0  0  0  0  0  0  0
   10.5960   -0.0750   22.8770 C   0  0  2  0  0  0  0  0  0  0  0  0
   11.0780    1.1270   23.3920 C   0  0  0  0  0  0  0  0  0  0  0  0
   12.4260    1.4380   23.3220 C   0  0  0  0  0  0  0  0  0  0  0  0
   13.3200    0.5480   22.7470 C   0  0  0  0  0  0  0  0  0  0  0  0
   12.8360   -0.6400   22.2370 C   0  0  0  0  0  0  0  0  0  0  0  0
   11.4950   -0.9660   22.2950 C   0  0  0  0  0  0  0  0  0  0  0  0
  5  2  1  0
  8  5  1  0
  8  3  1  6
  9  7  1  0
  9  1  1  0
  9  8  1  0
 10  1  1  1
 11 10  1  0
 11  6  1  0
 12  6  1  0
 13 12  1  0
 14 13  1  0
 14 10  1  0
 15 14  1  0
 16  8  1  0
 16 17  1  6
 18 17  1  0
 19 18  1  0
 20  4  1  0
 20 19  1  0
 21 16  1  0
 21 20  1  0
M  END
$$$$
