
     RDKit          3D

 21 23  0  0  0  0  0  0  0  0999 V2000
   13.8780   -1.7470   21.1640 Cl  0  0  0  0  0  0  0  0  0  0  0  0
   12.7580   -0.9210   22.2090 C   0  0  0  0  0  0  0  0  0  0  0  0
   13.2380    0.0000   23.1160 C   0  0  0  0  0  0  0  0  0  0  0  0
   12.3580    0.5910   24.0060 C   0  0  0  0  0  0  0  0  0  0  0  0
   11.4190   -1.2490   22.1440 C   0  0  0  0  0  0  0  0  0  0  0  0
   10.5130   -0.6310   23.0050 C   0  0  0  0  0  0  0  0  0  0  0  0
   11.0080    0.2750   23.9470 C   0  0  0  0  0  0  0  0  0  0  0  0
   10.2080    0.8910   24.8810 O   0  0  0  0  0  0  0  0  0  0  0  0
    8.8090    1.0040   24.5340 C   0  0  0  0  0  0  0  0  0  0  0  0
    8.2350   -0.3070   24.0610 C   0  0  0  0  0  0  0  0  0  0  0  0
    9.0180   -0.8190   22.8390 C   0  0  1  0  0  0  0  0  0  0  0  0
    8.5820   -0.0560   21.5880 C   0  0  0  0  0  0  0  0  0  0  0  0
    9.2150    0.9010   21.1580 O   0  0  0  0  0  0  0  0  0  0  0  0
    7.4470   -0.5120   21.0190 N   0  0  0  0  0  0  0  0  0  0  0  0
    6.7790    0.0850   19.9220 C   0  0  0  0  0  0  0  0  0  0  0  0
    5.6260    0.8550   20.1580 C   0  0  0  0  0  0  0  0  0  0  0  0
    5.1200    1.1280   21.5520 C   0  0  0  0  0  0  0  0  0  0  0  0
    7.2370   -0.0510   18.6100 C   0  0  0  0  0  0  0  0  0  0  0  0
    6.6260    0.5000   17.5580 N   0  0  0  0  0  0  0  0  0  0  0  0
    5.5190    1.2160   17.7940 C   0  0  0  0  0  0  0  0  0  0  0  0
    4.9950    1.4170   19.0540 C   0  0  0  0  0  0  0  0  0  0  0  0
  2  1  1  0
  3  2  2  0
  4  3  1  0
  5  2  1  0
  6  5  2  0
  7  6  1  0
  7  4  2  0
  8  7  1  0
  9  8  1  0
 10  9  1  0
 11 10  1  0
 11  6  1  0
 11 12  1  6
 13 12  2  0
 14 12  1  0
 15 14  1  0
 16 15  2  0
 17 16  1  0
 18 15  1  0
 19 18  2  0
 20 19  1  0
 21 20  2  0
 21 16  1  0
M  END
