
     RDKit          3D

 21 22  0  0  0  0  0  0  0  0999 V2000
   14.5070   -0.4660   23.3950 F   0  0  0  0  0  0  0  0  0  0  0  0
   13.5970   -1.2720   22.9080 C   0  0  1  0  0  0  0  0  0  0  0  0
   13.8350   -1.3010   21.5890 F   0  0  0  0  0  0  0  0  0  0  0  0
   13.8620   -2.4860   23.4070 F   0  0  0  0  0  0  0  0  0  0  0  0
   12.2180   -0.8120   23.2420 C   0  0  0  0  0  0  0  0  0  0  0  0
   11.9880   -0.0200   24.3630 C   0  0  0  0  0  0  0  0  0  0  0  0
   10.6980    0.2990   24.7420 C   0  0  0  0  0  0  0  0  0  0  0  0
    9.6270   -0.1720   24.0010 C   0  0  0  0  0  0  0  0  0  0  0  0
   11.1380   -1.2620   22.4950 C   0  0  0  0  0  0  0  0  0  0  0  0
    9.8360   -0.9560   22.8720 C   0  0  0  0  0  0  0  0  0  0  0  0
    8.6750   -1.4860   22.0720 C   0  0  0  0  0  0  0  0  0  0  0  0
    8.1990   -0.4320   21.0950 C   0  0  0  0  0  0  0  0  0  0  0  0
    8.8460    0.5880   20.8730 O   0  0  0  0  0  0  0  0  0  0  0  0
    7.0230   -0.7180   20.5050 N   0  0  0  0  0  0  0  0  0  0  0  0
    6.4340    0.0270   19.4700 C   0  0  0  0  0  0  0  0  0  0  0  0
    5.2950    0.8080   19.7320 C   0  0  0  0  0  0  0  0  0  0  0  0
    4.7210    0.9430   21.1190 C   0  0  0  0  0  0  0  0  0  0  0  0
    6.9930    0.0420   18.1970 C   0  0  0  0  0  0  0  0  0  0  0  0
    6.4960    0.7760   17.1950 N   0  0  0  0  0  0  0  0  0  0  0  0
    5.4050    1.5140   17.4500 C   0  0  0  0  0  0  0  0  0  0  0  0
    4.7750    1.5460   18.6760 C   0  0  0  0  0  0  0  0  0  0  0  0
  2  1  1  1
  3  2  1  0
  4  2  1  0
  5  2  1  0
  6  5  2  0
  7  6  1  0
  8  7  2  0
  9  5  1  0
 10  8  1  0
 10  9  2  0
 11 10  1  0
 12 11  1  0
 13 12  2  0
 14 12  1  0
 15 14  1  0
 16 15  2  0
 17 16  1  0
 18 15  1  0
 19 18  2  0
 20 19  1  0
 21 20  2  0
 21 16  1  0
M  END
