
     RDKit          3D

 20 22  0  0  0  0  0  0  0  0999 V2000
   14.1250   -1.4150   21.2370 Cl  0  0  0  0  0  0  0  0  0  0  0  0
   12.8910   -0.7350   22.2580 C   0  0  0  0  0  0  0  0  0  0  0  0
   13.2170    0.2910   23.1210 C   0  0  0  0  0  0  0  0  0  0  0  0
   12.2470    0.7580   23.9950 C   0  0  0  0  0  0  0  0  0  0  0  0
   10.9720    0.2180   23.9730 C   0  0  0  0  0  0  0  0  0  0  0  0
   11.6200   -1.2670   22.2090 C   0  0  0  0  0  0  0  0  0  0  0  0
   10.6340   -0.7670   23.0520 C   0  0  0  0  0  0  0  0  0  0  0  0
    9.1710   -1.1170   22.7980 C   0  0  2  0  0  0  0  0  0  0  0  0
    8.2020   -1.4510   23.9290 C   0  0  0  0  0  0  0  0  0  0  0  0
    8.6310   -2.5300   22.9970 C   0  0  0  0  0  0  0  0  0  0  0  0
    8.5690   -0.2990   21.6390 C   0  0  0  0  0  0  0  0  0  0  0  0
    9.0380    0.7900   21.3370 O   0  0  0  0  0  0  0  0  0  0  0  0
    7.5150   -0.8280   20.9890 N   0  0  0  0  0  0  0  0  0  0  0  0
    6.7950   -0.1360   19.9880 C   0  0  0  0  0  0  0  0  0  0  0  0
    5.6230    0.5650   20.3240 C   0  0  0  0  0  0  0  0  0  0  0  0
    5.0930    0.6050   21.7340 C   0  0  0  0  0  0  0  0  0  0  0  0
    7.2480   -0.0860   18.6710 C   0  0  0  0  0  0  0  0  0  0  0  0
    6.6340    0.6010   17.7050 N   0  0  0  0  0  0  0  0  0  0  0  0
    5.5120    1.2550   18.0330 C   0  0  0  0  0  0  0  0  0  0  0  0
    4.9800    1.2610   19.3060 C   0  0  0  0  0  0  0  0  0  0  0  0
  2  1  1  0
  3  2  2  0
  4  3  1  0
  5  4  2  0
  6  2  1  0
  7  6  2  0
  7  5  1  0
  8  7  1  0
  9  8  1  0
 10  9  1  0
 10  8  1  0
  8 11  1  6
 12 11  2  0
 13 11  1  0
 14 13  1  0
 15 14  2  0
 16 15  1  0
 17 14  1  0
 18 17  2  0
 19 18  1  0
 20 19  2  0
 20 15  1  0
M  END
