
     RDKit          3D

 20 20  0  0  0  0  0  0  0  0999 V2000
    7.8160    4.8510   22.6070 C   0  0  0  0  0  0  0  0  0  0  0  0
    7.0410   -0.3190   20.1400 C   0  0  0  0  0  0  0  0  0  0  0  0
    9.1190    0.3280   22.3550 C   0  0  0  0  0  0  0  0  0  0  0  0
   10.0490   -1.8570   21.8960 C   0  0  0  0  0  0  0  0  0  0  0  0
   11.4300   -1.6550   22.3400 C   0  0  0  0  0  0  0  0  0  0  0  0
   12.5700   -1.7000   22.7420 C   0  0  0  0  0  0  0  0  0  0  0  0
    7.3670    3.4730   22.9690 C   0  0  0  0  0  0  0  0  0  0  0  0
    7.9300    1.0960   22.9160 C   0  0  2  0  0  0  0  0  0  0  0  0
    6.5970    0.4580   22.4930 C   0  0  0  0  0  0  0  0  0  0  0  0
    6.3590    0.5210   21.0050 C   0  0  0  0  0  0  0  0  0  0  0  0
    5.4780    1.4430   20.4570 C   0  0  0  0  0  0  0  0  0  0  0  0
    5.2780    1.5240   19.0890 C   0  0  0  0  0  0  0  0  0  0  0  0
    5.9710    0.6700   18.2480 C   0  0  0  0  0  0  0  0  0  0  0  0
    6.8570   -0.2490   18.7720 C   0  0  0  0  0  0  0  0  0  0  0  0
    8.0630    2.4670   22.4450 N   0  0  0  0  0  0  0  0  0  0  0  0
    9.1560   -0.9750   22.6170 N   0  0  0  0  0  0  0  0  0  0  0  0
    6.3900    3.2650   23.6800 O   0  0  0  0  0  0  0  0  0  0  0  0
    5.8190    0.7380   16.9050 O   0  0  0  0  0  0  0  0  0  0  0  0
    9.9670    0.8990   21.6760 O   0  0  0  0  0  0  0  0  0  0  0  0
   14.2640   -2.0190   23.6280 Br  0  0  0  0  0  0  0  0  0  0  0  0
  5  4  1  0
  6  5  1  0
  7  1  1  0
  8  3  1  0
  8  9  1  6
 10  2  1  0
 10  9  1  0
 11 10  1  0
 12 11  1  0
 13 12  1  0
 14 13  1  0
 14  2  1  0
 15  8  1  0
 15  7  1  0
 16  4  1  0
 16  3  1  0
 17  7  1  0
 18 13  1  0
 19  3  1  0
 20  6  1  0
M  END
$$$$
