
     RDKit          3D

 16 17  0  0  0  0  0  0  0  0999 V2000
    5.9780   -4.1290   19.6390 O   0  0  0  0  0  0  0  0  0  0  0  0
    6.6750   -3.1330   19.7150 C   0  0  0  0  0  0  0  0  0  0  0  0
    7.2630   -2.5200   18.4620 C   0  0  0  0  0  0  0  0  0  0  0  0
    7.0480   -2.6070   20.8980 N   0  0  0  0  0  0  0  0  0  0  0  0
    7.8600   -1.3960   21.0520 C   0  0  0  0  0  0  0  0  0  0  0  0
    9.1660   -1.7570   21.7220 C   0  0  0  0  0  0  0  0  0  0  0  0
    8.9170   -2.3680   23.0420 N   0  0  0  0  0  0  0  0  0  0  0  0
    8.0910   -3.5830   22.8920 C   0  0  0  0  0  0  0  0  0  0  0  0
    6.7760   -3.2660   22.1800 C   0  0  0  0  0  0  0  0  0  0  0  0
   10.1760   -2.6820   23.7220 C   0  0  0  0  0  0  0  0  0  0  0  0
   11.1660   -1.5550   23.7080 C   0  0  0  0  0  0  0  0  0  0  0  0
   11.0820   -0.2960   24.8470 S   0  0  0  0  0  0  0  0  0  0  0  0
   12.4180    0.5090   24.1560 C   0  0  0  0  0  0  0  0  0  0  0  0
   12.9350   -0.1470   23.0960 C   0  0  0  0  0  0  0  0  0  0  0  0
   12.2410   -1.3480   22.7980 C   0  0  0  0  0  0  0  0  0  0  0  0
    8.8860   -3.2650   18.1840 S   0  0  0  0  0  0  0  0  0  0  0  0
  2  1  2  0
  3  2  1  0
  4  2  1  0
  5  4  1  0
  6  5  1  0
  7  6  1  0
  8  7  1  0
  9  4  1  0
  9  8  1  0
 10  7  1  0
 11 10  1  0
 12 11  1  0
 13 12  1  0
 14 13  2  0
 15 14  1  0
 15 11  2  0
  3 16  1  0
M  END
