
     RDKit          3D

 24 27  0  0  0  0  0  0  0  0999 V2000
    9.1600    0.8370   20.9780 O   0  0  0  0  0  0  0  0  0  0  0  0
    8.6010   -0.2000   21.3310 C   0  0  0  0  0  0  0  0  0  0  0  0
    9.0810   -1.0170   22.5300 C   0  0  2  0  0  0  0  0  0  0  0  0
    8.2380   -0.7430   23.7850 C   0  0  0  0  0  0  0  0  0  0  0  0
    8.5000    0.6570   24.3080 C   0  0  0  0  0  0  0  0  0  0  0  0
    9.9280    0.8800   24.4960 N   0  0  0  0  0  0  0  0  0  0  0  0
   10.5380   -0.6850   22.7640 C   0  0  0  0  0  0  0  0  0  0  0  0
   10.8940    0.2660   23.7320 C   0  0  0  0  0  0  0  0  0  0  0  0
   12.2320    0.6390   23.8780 C   0  0  0  0  0  0  0  0  0  0  0  0
   13.2050    0.0720   23.0720 C   0  0  0  0  0  0  0  0  0  0  0  0
   11.5270   -1.2630   21.9820 C   0  0  0  0  0  0  0  0  0  0  0  0
   12.8380   -0.8780   22.1420 C   0  0  0  0  0  0  0  0  0  0  0  0
   14.0550   -1.6170   21.1480 Cl  0  0  0  0  0  0  0  0  0  0  0  0
    7.5200   -0.7090   20.7070 N   0  0  0  0  0  0  0  0  0  0  0  0
    6.7760   -0.1150   19.6750 C   0  0  0  0  0  0  0  0  0  0  0  0
    5.6100    0.6260   20.0330 C   0  0  0  0  0  0  0  0  0  0  0  0
    5.1030    0.7090   21.3540 C   0  0  0  0  0  0  0  0  0  0  0  0
    3.9710    1.4220   21.6270 C   0  0  0  0  0  0  0  0  0  0  0  0
    3.2950    2.0890   20.6170 C   0  0  0  0  0  0  0  0  0  0  0  0
    3.7510    2.0510   19.3320 C   0  0  0  0  0  0  0  0  0  0  0  0
    4.9160    1.3150   19.0030 C   0  0  0  0  0  0  0  0  0  0  0  0
    5.4250    1.2120   17.6860 C   0  0  0  0  0  0  0  0  0  0  0  0
    6.5060    0.5140   17.3550 N   0  0  0  0  0  0  0  0  0  0  0  0
    7.1530   -0.1290   18.3340 C   0  0  0  0  0  0  0  0  0  0  0  0
  2  1  2  0
  3  2  1  6
  4  3  1  0
  5  4  1  0
  6  5  1  0
  7  3  1  0
  8  7  2  0
  8  6  1  0
  9  8  1  0
 10  9  2  0
 11  7  1  0
 12 11  2  0
 12 10  1  0
 13 12  1  0
 14  2  1  0
 15 14  1  0
 16 15  1  0
 17 16  2  0
 18 17  1  0
 19 18  2  0
 20 19  1  0
 21 20  2  0
 21 16  1  0
 22 21  1  0
 23 22  2  0
 24 23  1  0
 24 15  2  0
M  END
