
     RDKit          3D

 21 23  0  0  0  0  0  0  0  0999 V2000
   13.9210   -1.8410   21.1700 Cl  0  0  0  0  0  0  0  0  0  0  0  0
   12.8240   -0.9610   22.1900 C   0  0  2  0  0  0  0  0  0  0  0  0
   13.3320   -0.0990   23.1420 C   0  0  0  0  0  0  0  0  0  0  0  0
   12.4570    0.4750   24.0510 C   0  0  0  0  0  0  0  0  0  0  0  0
   11.0980    0.2090   23.9750 C   0  0  0  0  0  0  0  0  0  0  0  0
   11.4730   -1.2220   22.0940 C   0  0  0  0  0  0  0  0  0  0  0  0
   10.5920   -0.6230   22.9870 C   0  0  2  0  0  0  0  0  0  0  0  0
    9.1050   -0.8170   22.8240 C   0  0  0  0  0  0  0  0  0  0  0  0
    8.5730   -0.0870   21.6040 C   0  0  2  0  0  0  0  0  0  0  0  0
    9.2740    0.6890   20.9730 O   0  0  0  0  0  0  0  0  0  0  0  0
    7.2650   -0.2720   21.2830 N   0  0  0  0  0  0  0  0  0  0  0  0
    6.2780   -0.8570   22.2030 C   0  0  0  0  0  0  0  0  0  0  0  0
    5.3610    0.2480   22.7130 C   0  0  0  0  0  0  0  0  0  0  0  0
    4.8180    1.1580   21.6000 C   0  0  0  0  0  0  0  0  0  0  0  0
    5.4550    0.9280   20.2470 C   0  0  0  0  0  0  0  0  0  0  0  0
    4.8330    1.3970   19.0850 C   0  0  0  0  0  0  0  0  0  0  0  0
    3.6280    2.0700   19.1430 N   0  0  0  0  0  0  0  0  0  0  0  0
    6.6590    0.2210   20.1100 C   0  0  0  0  0  0  0  0  0  0  0  0
    7.1960    0.0250   18.8440 C   0  0  0  0  0  0  0  0  0  0  0  0
    6.6290    0.4640   17.7190 N   0  0  0  0  0  0  0  0  0  0  0  0
    5.4770    1.1350   17.8310 C   0  0  0  0  0  0  0  0  0  0  0  0
  2  1  1  1
  3  2  1  0
  4  3  1  0
  5  4  1  0
  6  2  1  0
  7  6  1  0
  7  5  1  0
  7  8  1  6
  9  8  1  0
  9 10  1  1
 11  9  1  0
 12 11  1  0
 13 12  1  0
 14 13  1  0
 15 14  1  0
 16 15  1  0
 17 16  1  0
 18 15  1  0
 18 11  1  0
 19 18  1  0
 20 19  1  0
 21 16  1  0
 21 20  1  0
M  END
$$$$
