
     RDKit          3D

 15 16  0  0  0  0  0  0  0  0999 V2000
    7.3480  -23.2860   -1.3560 C   0  0  0  0  0  0  0  0  0  0  0  0
    7.0380  -21.8110   -1.0340 C   0  0  1  0  0  0  0  0  0  0  0  0
    7.6250  -20.9070   -2.1150 C   0  0  0  0  0  0  0  0  0  0  0  0
    7.6260  -18.5810   -3.1330 C   0  0  0  0  0  0  0  0  0  0  0  0
    8.7330  -18.9420   -4.1250 C   0  0  0  0  0  0  0  0  0  0  0  0
    9.9630  -16.8090   -4.0850 C   0  0  0  0  0  0  0  0  0  0  0  0
   10.2480  -15.7990   -4.9820 C   0  0  0  0  0  0  0  0  0  0  0  0
    9.6580  -16.1590   -6.1840 C   0  0  0  0  0  0  0  0  0  0  0  0
    6.0840  -19.2450   -1.2340 C   0  0  0  0  0  0  0  0  0  0  0  0
    5.1240  -20.3790   -0.8780 C   0  0  0  0  0  0  0  0  0  0  0  0
    7.1230  -19.5550   -2.1840 N   0  0  0  0  0  0  0  0  0  0  0  0
    9.2460  -17.7210   -4.7180 N   0  0  0  0  0  0  0  0  0  0  0  0
    9.0560  -17.3220   -6.0090 N   0  0  0  0  0  0  0  0  0  0  0  0
    7.1750  -17.4820   -3.1520 O   0  0  0  0  0  0  0  0  0  0  0  0
    5.6430  -21.6920   -0.9000 O   0  0  0  0  0  0  0  0  0  0  0  0
  2  1  1  6
  3  2  1  0
  5  4  1  0
  7  6  2  0
  8  7  1  0
 10  9  1  0
 11  9  1  0
 11  4  1  0
 11  3  1  0
 12  6  1  0
 12  5  1  0
 13 12  1  0
 13  8  2  0
 14  4  2  0
 15 10  1  0
 15  2  1  0
M  END
