
     RDKit          3D

 26 28  0  0  0  0  0  0  0  0999 V2000
   12.3940    4.2850   22.7860 N   0  0  0  0  0  0  0  0  0  0  0  0
   13.4630    5.2440   22.5450 C   0  0  0  0  0  0  0  0  0  0  0  0
    8.9020    1.6880   20.9100 O   0  0  0  0  0  0  0  0  0  0  0  0
   11.1190    4.5420   23.1050 C   0  0  0  0  0  0  0  0  0  0  0  0
    8.7590    1.5840   23.1360 N   0  0  0  0  0  0  0  0  0  0  0  0
   10.4980    3.3280   23.1000 C   0  0  0  0  0  0  0  0  0  0  0  0
    8.3340   -0.2930   21.8280 N   0  0  0  0  0  0  0  0  0  0  0  0
    9.0630    2.9830   23.3380 C   0  0  0  0  0  0  0  0  0  0  0  0
    6.5230    0.4720   17.4190 N   0  0  0  0  0  0  0  0  0  0  0  0
    8.6640    1.0320   21.9090 C   0  0  0  0  0  0  0  0  0  0  0  0
   11.4250    2.3850   22.7930 N   0  0  0  0  0  0  0  0  0  0  0  0
    8.2150   -1.1890   22.9870 C   0  0  0  0  0  0  0  0  0  0  0  0
   12.5860    2.9670   22.6110 N   0  0  0  0  0  0  0  0  0  0  0  0
    9.3850   -2.1620   23.1310 C   0  0  0  0  0  0  0  0  0  0  0  0
   10.7040   -1.4390   23.2720 C   0  0  0  0  0  0  0  0  0  0  0  0
   11.6890   -1.5620   22.2970 C   0  0  0  0  0  0  0  0  0  0  0  0
   12.8290   -0.7720   22.3380 C   0  0  0  0  0  0  0  0  0  0  0  0
   13.0010    0.1470   23.3570 C   0  0  0  0  0  0  0  0  0  0  0  0
   12.0500    0.2470   24.3560 C   0  0  0  0  0  0  0  0  0  0  0  0
   10.9140   -0.5490   24.3190 C   0  0  0  0  0  0  0  0  0  0  0  0
    8.1760   -0.9260   20.5160 C   0  0  0  0  0  0  0  0  0  0  0  0
    7.1440   -0.2830   19.6180 C   0  0  0  0  0  0  0  0  0  0  0  0
    5.9910    0.2940   20.1300 C   0  0  0  0  0  0  0  0  0  0  0  0
    5.1250    0.9750   19.2930 C   0  0  0  0  0  0  0  0  0  0  0  0
    5.4330    1.0430   17.9510 C   0  0  0  0  0  0  0  0  0  0  0  0
    7.3440   -0.1790   18.2520 C   0  0  0  0  0  0  0  0  0  0  0  0
  2  1  1  0
  4  1  1  0
  6  4  2  0
  8  6  1  0
  8  5  1  0
 10  3  2  0
 10  7  1  0
 10  5  1  0
 11  6  1  0
 12  7  1  0
 13 11  2  0
 13  1  1  0
 14 12  1  0
 15 14  1  0
 16 15  2  0
 17 16  1  0
 18 17  2  0
 19 18  1  0
 20 15  1  0
 20 19  2  0
 21  7  1  0
 22 21  1  0
 23 22  1  0
 24 23  2  0
 25 24  1  0
 25  9  2  0
 26 22  2  0
 26  9  1  0
M  END
