
     RDKit          3D

 18 19  0  0  0  0  0  0  0  0999 V2000
   13.8930   -1.8570   21.4560 Cl  0  0  0  0  0  0  0  0  0  0  0  0
   12.6940   -1.0220   22.4070 C   0  0  0  0  0  0  0  0  0  0  0  0
   13.1010   -0.1360   23.3860 C   0  0  0  0  0  0  0  0  0  0  0  0
   12.1400    0.4190   24.2190 C   0  0  0  0  0  0  0  0  0  0  0  0
   10.7970    0.1410   24.0160 C   0  0  0  0  0  0  0  0  0  0  0  0
   11.3590   -1.3160   22.2020 C   0  0  0  0  0  0  0  0  0  0  0  0
   10.3910   -0.7030   22.9900 C   0  0  0  0  0  0  0  0  0  0  0  0
    8.9270   -0.8940   22.6730 C   0  0  0  0  0  0  0  0  0  0  0  0
    8.4730   -0.0550   21.4940 C   0  0  0  0  0  0  0  0  0  0  0  0
    9.0710    0.9640   21.1330 O   0  0  0  0  0  0  0  0  0  0  0  0
    7.3310   -0.4850   20.9260 N   0  0  0  0  0  0  0  0  0  0  0  0
    6.6520    0.1310   19.8750 C   0  0  0  0  0  0  0  0  0  0  0  0
    5.4440    0.8310   20.1180 C   0  0  0  0  0  0  0  0  0  0  0  0
    4.8450    0.9710   21.4950 C   0  0  0  0  0  0  0  0  0  0  0  0
    7.2340    0.1300   18.6760 N   0  0  0  0  0  0  0  0  0  0  0  0
    6.6830    0.7920   17.6400 N   0  0  0  0  0  0  0  0  0  0  0  0
    5.5430    1.4570   17.8130 C   0  0  0  0  0  0  0  0  0  0  0  0
    4.8940    1.4940   19.0320 C   0  0  0  0  0  0  0  0  0  0  0  0
  2  1  1  0
  3  2  2  0
  4  3  1  0
  5  4  2  0
  6  2  1  0
  7  5  1  0
  7  6  2  0
  8  7  1  0
  9  8  1  0
 10  9  2  0
 11  9  1  0
 12 11  1  0
 13 12  2  0
 14 13  1  0
 15 12  1  0
 16 15  2  0
 17 16  1  0
 18 13  1  0
 18 17  2  0
M  END
