
     RDKit          3D

 13 13  0  0  0  0  0  0  0  0999 V2000
    6.4980   -4.9880   26.5660 C   0  0  0  0  0  0  0  0  0  0  0  0
    8.1600   -4.3970   26.1430 S   0  0  2  0  0  0  0  0  0  0  0  0
    9.1450   -5.4830   26.1540 O   0  0  0  0  0  0  0  0  0  0  0  0
    8.7070   -3.5550   27.1920 O   0  0  0  0  0  0  0  0  0  0  0  0
    8.1270   -3.5700   24.6530 N   0  0  0  0  0  0  0  0  0  0  0  0
    9.3810   -3.0630   24.1570 C   0  0  0  0  0  0  0  0  0  0  0  0
    9.2790   -1.7810   23.3420 C   0  0  0  0  0  0  0  0  0  0  0  0
   10.6750   -1.1800   23.3890 C   0  0  0  0  0  0  0  0  0  0  0  0
   10.9830   -0.1370   24.2530 C   0  0  0  0  0  0  0  0  0  0  0  0
   12.2740    0.3650   24.2770 C   0  0  0  0  0  0  0  0  0  0  0  0
   13.2520   -0.1870   23.4670 C   0  0  0  0  0  0  0  0  0  0  0  0
   12.9410   -1.2390   22.6140 C   0  0  0  0  0  0  0  0  0  0  0  0
   11.6520   -1.7310   22.5830 C   0  0  0  0  0  0  0  0  0  0  0  0
  2  1  1  1
  3  2  1  0
  4  2  1  0
  5  2  1  0
  6  5  1  0
  7  6  1  0
  8  7  1  0
  9  8  1  0
 10  9  1  0
 11 10  1  0
 12 11  1  0
 13  8  1  0
 13 12  1  0
M  END
$$$$
