
     RDKit          3D

 15 16  0  0  0  0  0  0  0  0999 V2000
   10.0420    1.4410   21.3830 N   0  0  0  0  0  0  0  0  0  0  0  0
    9.8990    0.4750   21.9910 C   0  0  0  0  0  0  0  0  0  0  0  0
    7.4230   -5.8980   25.4390 O   0  0  0  0  0  0  0  0  0  0  0  0
    9.7280   -0.6770   22.7790 C   0  0  0  0  0  0  0  0  0  0  0  0
    8.8320   -4.1830   26.5030 C   0  0  0  0  0  0  0  0  0  0  0  0
    9.0230   -0.5760   23.9670 C   0  0  0  0  0  0  0  0  0  0  0  0
    8.9480   -1.6860   24.8020 C   0  0  0  0  0  0  0  0  0  0  0  0
    9.5840   -2.8930   24.4440 C   0  0  0  0  0  0  0  0  0  0  0  0
   10.2570   -2.8820   23.1770 C   0  0  0  0  0  0  0  0  0  0  0  0
   10.0180   -5.3960   24.6780 C   0  0  0  0  0  0  0  0  0  0  0  0
    9.0290   -5.8990   23.6200 C   0  0  0  0  0  0  0  0  0  0  0  0
    7.5640   -5.6790   24.0400 C   0  0  0  0  0  0  0  0  0  0  0  0
    7.4140   -4.7710   26.2810 C   0  0  0  0  0  0  0  0  0  0  0  0
   10.3390   -1.8220   22.3550 N   0  0  0  0  0  0  0  0  0  0  0  0
    9.6600   -4.0770   25.2700 N   0  0  0  0  0  0  0  0  0  0  0  0
  2  1  3  0
  4  2  1  0
  6  4  2  0
  7  6  1  0
  8  7  2  0
  9  8  1  0
 11 10  1  0
 12 11  1  0
 12  3  1  0
 13  3  1  0
 13  5  1  0
 14  9  2  0
 14  4  1  0
 15 10  1  0
 15  8  1  0
 15  5  1  0
M  END
