
     RDKit          3D

 20 22  0  0  0  0  0  0  0  0999 V2000
   13.9820   -2.6810   23.6180 Cl  0  0  0  0  0  0  0  0  0  0  0  0
   12.8800   -1.3760   23.3090 C   0  0  0  0  0  0  0  0  0  0  0  0
   13.3190   -0.0800   23.4660 C   0  0  0  0  0  0  0  0  0  0  0  0
   12.4020    0.9510   23.3670 C   0  0  0  0  0  0  0  0  0  0  0  0
   11.0750    0.6830   23.0860 C   0  0  0  0  0  0  0  0  0  0  0  0
   11.5790   -1.6700   22.9570 C   0  0  0  0  0  0  0  0  0  0  0  0
   10.6720   -0.6250   22.8380 C   0  0  0  0  0  0  0  0  0  0  0  0
    9.3980   -0.8410   22.2560 N   0  0  0  0  0  0  0  0  0  0  0  0
    8.5550   -1.9990   22.5840 C   0  0  0  0  0  0  0  0  0  0  0  0
    7.2940   -1.7640   21.7830 C   0  0  0  0  0  0  0  0  0  0  0  0
    8.8070    0.0080   21.3500 C   0  0  0  0  0  0  0  0  0  0  0  0
    9.2710    1.0470   20.9310 O   0  0  0  0  0  0  0  0  0  0  0  0
    7.5790   -0.5320   21.0330 N   0  0  0  0  0  0  0  0  0  0  0  0
    6.7150   -0.0100   20.0170 C   0  0  0  0  0  0  0  0  0  0  0  0
    5.5630    0.7230   20.2980 C   0  0  0  0  0  0  0  0  0  0  0  0
    5.0480    0.9120   21.7020 C   0  0  0  0  0  0  0  0  0  0  0  0
    7.1520   -0.1110   18.7020 C   0  0  0  0  0  0  0  0  0  0  0  0
    6.5300    0.4720   17.6730 N   0  0  0  0  0  0  0  0  0  0  0  0
    5.4210    1.1660   17.9480 C   0  0  0  0  0  0  0  0  0  0  0  0
    4.9100    1.3140   19.2230 C   0  0  0  0  0  0  0  0  0  0  0  0
  2  1  1  0
  3  2  2  0
  4  3  1  0
  5  4  2  0
  6  2  1  0
  7  6  2  0
  7  5  1  0
  8  7  1  0
  9  8  1  0
 10  9  1  0
 11  8  1  0
 12 11  2  0
 13 11  1  0
 13 10  1  0
 14 13  1  0
 15 14  2  0
 16 15  1  0
 17 14  1  0
 18 17  2  0
 19 18  1  0
 20 19  2  0
 20 15  1  0
M  END
