
     RDKit          3D

 17 18  0  0  0  0  0  0  0  0999 V2000
    7.2850   -0.5360   20.7930 N   0  0  0  0  0  0  0  0  0  0  0  0
   12.6650   -0.9550   22.1040 C   0  0  0  0  0  0  0  0  0  0  0  0
    8.9920    0.9230   20.9410 O   0  0  0  0  0  0  0  0  0  0  0  0
   13.8280   -1.7740   21.1070 Cl  0  0  0  0  0  0  0  0  0  0  0  0
   13.1030   -0.0450   23.0410 C   0  0  0  0  0  0  0  0  0  0  0  0
    6.6230    0.7200   17.4180 N   0  0  0  0  0  0  0  0  0  0  0  0
   12.1670    0.5530   23.8700 C   0  0  0  0  0  0  0  0  0  0  0  0
   10.8210    0.2510   23.7400 C   0  0  0  0  0  0  0  0  0  0  0  0
   10.3860   -0.6460   22.7720 C   0  0  0  0  0  0  0  0  0  0  0  0
    8.9130   -0.8800   22.5270 C   0  0  0  0  0  0  0  0  0  0  0  0
    8.4160   -0.0810   21.3400 C   0  0  0  0  0  0  0  0  0  0  0  0
    6.6070    0.0810   19.7310 C   0  0  0  0  0  0  0  0  0  0  0  0
    5.4370    0.8020   19.9290 C   0  0  0  0  0  0  0  0  0  0  0  0
    4.8690    1.4740   18.8650 C   0  0  0  0  0  0  0  0  0  0  0  0
    5.4990    1.4110   17.6390 C   0  0  0  0  0  0  0  0  0  0  0  0
    7.1570    0.0700   18.4530 C   0  0  0  0  0  0  0  0  0  0  0  0
   11.3290   -1.2660   21.9620 C   0  0  0  0  0  0  0  0  0  0  0  0
  4  2  1  0
  5  2  2  0
  7  5  1  0
  8  7  2  0
  9  8  1  0
 10  9  1  0
 11  3  2  0
 11  1  1  0
 11 10  1  0
 12  1  1  0
 13 12  1  0
 14 13  2  0
 15 14  1  0
 15  6  2  0
 16 12  2  0
 16  6  1  0
 17  9  2  0
 17  2  1  0
M  END
