
     RDKit          3D

 28 29  0  0  0  0  0  0  0  0999 V2000
    5.6440   -2.2960   21.0110 O   0  0  0  0  0  0  0  0  0  0  0  0
    6.7700   -2.4480   21.4550 C   0  0  0  0  0  0  0  0  0  0  0  0
    7.3330   -3.8360   21.6160 C   0  0  0  0  0  0  0  0  0  0  0  0
    7.2180   -4.6080   20.3380 C   0  0  0  0  0  0  0  0  0  0  0  0
    7.5620   -1.3820   21.7820 N   0  0  0  0  0  0  0  0  0  0  0  0
    8.7860   -1.5490   22.5180 C   0  0  0  0  0  0  0  0  0  0  0  0
   10.0070   -1.6480   21.8520 C   0  0  0  0  0  0  0  0  0  0  0  0
   11.1840   -1.7790   22.5700 C   0  0  0  0  0  0  0  0  0  0  0  0
   11.1790   -1.8170   23.9630 C   0  0  0  0  0  0  0  0  0  0  0  0
   12.4830   -1.8760   24.7720 C   0  0  2  0  0  0  0  0  0  0  0  0
   13.7110   -2.1180   23.8890 C   0  0  0  0  0  0  0  0  0  0  0  0
   12.4310   -3.0040   25.8150 C   0  0  0  0  0  0  0  0  0  0  0  0
   12.6900   -0.5480   25.5050 C   0  0  0  0  0  0  0  0  0  0  0  0
    9.9520   -1.7410   24.6180 C   0  0  0  0  0  0  0  0  0  0  0  0
    8.7690   -1.6060   23.9100 C   0  0  0  0  0  0  0  0  0  0  0  0
    7.1540    0.0200   21.4770 C   0  0  1  0  0  0  0  0  0  0  0  0
    8.2280    1.0720   21.7990 C   0  0  0  0  0  0  0  0  0  0  0  0
    9.1360    1.3060   21.0080 O   0  0  0  0  0  0  0  0  0  0  0  0
    8.0680    1.7050   22.9630 N   0  0  0  0  0  0  0  0  0  0  0  0
    9.0770    2.6020   23.5150 C   0  0  0  0  0  0  0  0  0  0  0  0
   10.3090    1.8510   23.9500 C   0  0  0  0  0  0  0  0  0  0  0  0
    6.5090    0.2740   20.1230 C   0  0  0  0  0  0  0  0  0  0  0  0
    5.3600    1.0440   20.0130 C   0  0  0  0  0  0  0  0  0  0  0  0
    6.6480    0.1780   17.7180 N   0  0  0  0  0  0  0  0  0  0  0  0
    4.8660    1.3810   18.7670 C   0  0  0  0  0  0  0  0  0  0  0  0
    5.5410    0.9260   17.6530 C   0  0  0  0  0  0  0  0  0  0  0  0
    7.1030   -0.1380   18.9360 C   0  0  0  0  0  0  0  0  0  0  0  0
    8.1980   -3.8620   19.0080 S   0  0  0  0  0  0  0  0  0  0  0  0
  2  1  2  0
  3  2  1  0
  4  3  1  0
  5  2  1  0
  6  5  1  0
  7  6  2  0
  8  7  1  0
  9  8  2  0
 10  9  1  0
 10 11  1  6
 12 10  1  0
 13 10  1  0
 14  9  1  0
 15 14  2  0
 15  6  1  0
 16  5  1  0
 16 17  1  6
 18 17  2  0
 19 17  1  0
 20 19  1  0
 21 20  1  0
 22 16  1  0
 23 22  2  0
 25 23  1  0
 26 25  2  0
 26 24  1  0
 27 24  2  0
 27 22  1  0
  4 28  1  0
M  END
