
     RDKit          3D

 18 19  0  0  0  0  0  0  0  0999 V2000
    6.5460    0.5630   17.5680 N   0  0  0  0  0  0  0  0  0  0  0  0
    5.1160    0.8720   21.6270 C   0  0  0  0  0  0  0  0  0  0  0  0
    9.2980    0.6590   21.0120 O   0  0  0  0  0  0  0  0  0  0  0  0
    5.6030    0.7190   20.2090 C   0  0  0  0  0  0  0  0  0  0  0  0
    7.4650   -0.6890   20.9090 N   0  0  0  0  0  0  0  0  0  0  0  0
   12.0810    1.0390   25.4990 O   0  0  0  0  0  0  0  0  0  0  0  0
    4.9450    1.3560   19.1640 C   0  0  0  0  0  0  0  0  0  0  0  0
    5.4400    1.2470   17.8800 C   0  0  0  0  0  0  0  0  0  0  0  0
    7.1840   -0.0610   18.5630 C   0  0  0  0  0  0  0  0  0  0  0  0
    6.7550   -0.0210   19.8910 C   0  0  0  0  0  0  0  0  0  0  0  0
    8.6980   -0.3620   21.3440 C   0  0  0  0  0  0  0  0  0  0  0  0
    9.3020   -1.3690   22.3010 C   0  0  0  0  0  0  0  0  0  0  0  0
   10.6590   -0.9120   22.7780 C   0  0  0  0  0  0  0  0  0  0  0  0
   11.8100   -1.2350   22.0740 C   0  0  0  0  0  0  0  0  0  0  0  0
   13.0470   -0.7710   22.4880 C   0  0  0  0  0  0  0  0  0  0  0  0
   13.1530    0.0140   23.6250 C   0  0  0  0  0  0  0  0  0  0  0  0
   12.0080    0.3180   24.3490 C   0  0  0  0  0  0  0  0  0  0  0  0
   10.7690   -0.1320   23.9230 C   0  0  0  0  0  0  0  0  0  0  0  0
  4  2  1  0
  7  4  2  0
  8  7  1  0
  8  1  2  0
  9  1  1  0
 10  9  2  0
 10  5  1  0
 10  4  1  0
 11  5  1  0
 11  3  2  0
 12 11  1  0
 13 12  1  0
 14 13  2  0
 15 14  1  0
 16 15  2  0
 17 16  1  0
 17  6  1  0
 18 13  1  0
 18 17  2  0
M  END
