
     RDKit          3D

 34 37  0  0  0  0  0  0  0  0999 V2000
    9.0610    1.7110   21.1660 O   0  0  0  0  0  0  0  0  0  0  0  0
    9.2200    1.7940   22.3270 C   0  0  0  0  0  0  0  0  0  0  0  0
    9.1420    3.1920   23.0750 C   0  0  0  0  0  0  0  0  0  0  0  0
    9.2690    3.3920   24.4580 C   0  0  0  0  0  0  0  0  0  0  0  0
    9.1580    4.7940   24.6940 C   0  0  0  0  0  0  0  0  0  0  0  0
    9.1970    5.5970   25.8730 C   0  0  0  0  0  0  0  0  0  0  0  0
    9.0500    6.9750   25.7700 C   0  0  0  0  0  0  0  0  0  0  0  0
    8.8670    7.5730   24.5150 C   0  0  0  0  0  0  0  0  0  0  0  0
    8.8300    6.7860   23.3600 C   0  0  0  0  0  0  0  0  0  0  0  0
    8.9780    5.3780   23.4670 C   0  0  0  0  0  0  0  0  0  0  0  0
    8.9770    4.3780   22.5000 N   0  0  0  0  0  0  0  0  0  0  0  0
    9.5230    0.5680   23.1310 N   0  0  0  0  0  0  0  0  0  0  0  0
    9.6340   -0.7410   22.4560 C   0  0  1  0  0  0  0  0  0  0  0  0
   10.4740   -1.6360   23.3480 C   0  0  0  0  0  0  0  0  0  0  0  0
   11.8060   -0.8960   23.5020 C   0  0  0  0  0  0  0  0  0  0  0  0
   12.7460   -0.9710   22.4850 C   0  0  0  0  0  0  0  0  0  0  0  0
   13.9480   -0.2940   22.6000 C   0  0  0  0  0  0  0  0  0  0  0  0
   14.2000    0.4640   23.7200 C   0  0  0  0  0  0  0  0  0  0  0  0
   13.2570    0.5490   24.7320 C   0  0  0  0  0  0  0  0  0  0  0  0
   12.0540   -0.1280   24.6180 C   0  0  0  0  0  0  0  0  0  0  0  0
    8.2770   -1.3320   22.1240 C   0  0  0  0  0  0  0  0  0  0  0  0
    8.0540   -1.7460   20.7560 N   0  0  0  0  0  0  0  0  0  0  0  0
    6.8150   -2.3290   20.3000 C   0  0  1  0  0  0  0  0  0  0  0  0
    6.3510   -1.5040   19.0780 C   0  0  0  0  0  0  0  0  0  0  0  0
    6.0770    0.0980   19.4650 C   0  0  2  0  0  0  0  0  0  0  0  0
    5.1170    0.1660   20.1830 C   0  0  0  0  0  0  0  0  0  0  0  0
    4.2980    1.6090   19.7770 C   0  0  0  0  0  0  0  0  0  0  0  0
    4.5070    1.8360   18.5470 N   0  0  0  0  0  0  0  0  0  0  0  0
    5.6770    0.9180   18.1390 C   0  0  0  0  0  0  0  0  0  0  0  0
    6.1720    0.8350   17.0860 O   0  0  0  0  0  0  0  0  0  0  0  0
    6.9820   -3.7740   19.9070 C   0  0  0  0  0  0  0  0  0  0  0  0
    6.0150   -4.4020   19.6600 O   0  0  0  0  0  0  0  0  0  0  0  0
    7.4320   -1.4380   22.9420 O   0  0  0  0  0  0  0  0  0  0  0  0
   13.5170    1.2970   25.8390 F   0  0  0  0  0  0  0  0  0  0  0  0
  2  1  2  0
  3  2  1  0
  4  3  2  0
  5  4  1  0
  6  5  2  0
  7  6  1  0
  8  7  2  0
  9  8  1  0
 10  5  1  0
 10  9  2  0
 11 10  1  0
 11  3  1  0
 12  2  1  0
 13 12  1  0
 13 14  1  1
 15 14  1  0
 16 15  2  0
 17 16  1  0
 18 17  2  0
 19 18  1  0
 20 19  2  0
 20 15  1  0
 21 13  1  0
 22 21  1  0
 23 22  1  0
 23 24  1  6
 25 24  1  6
 26 25  1  0
 27 26  1  0
 28 27  1  0
 29 28  1  0
 29 25  1  0
 30 29  2  0
 31 23  1  0
 32 31  2  0
 33 21  2  0
 34 19  1  0
M  END
