
     RDKit          3D

 10 10  0  0  0  0  0  0  0  0999 V2000
   -3.2250    4.7290  -12.5440 C   0  0  0  0  0  0  0  0  0  0  0  0
   -4.3960    4.1010  -12.4230 O   0  0  0  0  0  0  0  0  0  0  0  0
   -4.4660    2.7680  -12.0550 C   0  0  0  0  0  0  0  0  0  0  0  0
   -4.2720    2.5360  -10.5930 C   0  0  0  0  0  0  0  0  0  0  0  0
   -4.3580    3.5820   -9.6180 C   0  0  0  0  0  0  0  0  0  0  0  0
   -4.1690    3.3610   -8.2270 C   0  0  0  0  0  0  0  0  0  0  0  0
   -3.9280    2.0690   -7.7830 C   0  0  0  0  0  0  0  0  0  0  0  0
   -3.8220    1.0360   -8.7140 C   0  0  0  0  0  0  0  0  0  0  0  0
   -4.0220    1.2550  -10.0890 C   0  0  0  0  0  0  0  0  0  0  0  0
   -2.2060    4.0750  -12.3890 O   0  0  0  0  0  0  0  0  0  0  0  0
  2  1  1  0
  3  2  1  0
  4  3  1  0
  5  4  1  0
  6  5  1  0
  7  6  1  0
  8  7  1  0
  9  8  1  0
  9  4  1  0
 10  1  1  0
M  END
