
     RDKit          3D

 25 27  0  0  0  0  0  0  0  0999 V2000
    7.0420   -2.5730   22.0590 N   0  0  0  0  0  0  0  0  0  0  0  0
   13.4940    0.1480   22.7180 C   0  0  0  0  0  0  0  0  0  0  0  0
   12.5520    0.1840   23.7890 O   0  0  0  0  0  0  0  0  0  0  0  0
   11.3440   -0.4340   23.6050 C   0  0  0  0  0  0  0  0  0  0  0  0
   10.9430    0.2820   25.8040 O   0  0  0  0  0  0  0  0  0  0  0  0
   10.4920   -0.4290   24.7240 C   0  0  0  0  0  0  0  0  0  0  0  0
    7.3860   -4.8480   21.9400 O   0  0  0  0  0  0  0  0  0  0  0  0
   10.1330    0.2840   26.9870 C   0  0  0  0  0  0  0  0  0  0  0  0
    5.8260   -4.4050   19.5590 O   0  0  0  0  0  0  0  0  0  0  0  0
    9.2750   -1.0830   24.6650 C   0  0  0  0  0  0  0  0  0  0  0  0
    8.8690   -1.7200   23.4990 C   0  0  0  0  0  0  0  0  0  0  0  0
    7.5050   -2.3640   23.4270 C   0  0  0  0  0  0  0  0  0  0  0  0
    7.1280   -3.7810   21.4160 C   0  0  0  0  0  0  0  0  0  0  0  0
    6.8730   -3.5330   19.9370 C   0  0  0  0  0  0  0  0  0  0  0  0
    6.4020   -2.1110   19.9360 C   0  0  0  0  0  0  0  0  0  0  0  0
    6.4820   -1.5960   21.2110 C   0  0  0  0  0  0  0  0  0  0  0  0
    6.1400   -0.2610   21.4770 C   0  0  0  0  0  0  0  0  0  0  0  0
    6.1200    0.3160   22.8710 C   0  0  0  0  0  0  0  0  0  0  0  0
    5.7480    0.5430   20.4090 C   0  0  0  0  0  0  0  0  0  0  0  0
    5.6710    0.0100   19.1420 C   0  0  0  0  0  0  0  0  0  0  0  0
    5.9870   -1.3030   18.8860 C   0  0  0  0  0  0  0  0  0  0  0  0
    9.7150   -1.7040   22.3960 C   0  0  0  0  0  0  0  0  0  0  0  0
   10.9450   -1.0760   22.4390 C   0  0  0  0  0  0  0  0  0  0  0  0
    5.1010    1.1070   17.7100 Br  0  0  0  0  0  0  0  0  0  0  0  0
    8.3810   -3.5720   18.8010 S   0  0  0  0  0  0  0  0  0  0  0  0
  3  2  1  0
  4  3  1  0
  6  5  1  0
  6  4  2  0
  8  5  1  0
 10  6  1  0
 11 10  2  0
 12 11  1  0
 12  1  1  0
 13  7  2  0
 13  1  1  0
 14 13  1  0
 14  9  1  6
 15 14  1  0
 16 15  2  0
 16  1  1  0
 17 16  1  0
 18 17  1  0
 19 17  2  0
 20 19  1  0
 21 20  2  0
 21 15  1  0
 22 11  1  0
 23 22  2  0
 23  4  1  0
 24 20  1  0
 14 25  1  0
M  END
