
     RDKit          3D

 20 22  0  0  0  0  0  0  0  0999 V2000
    7.6710   -0.9200   20.7030 N   0  0  0  0  0  0  0  0  0  0  0  0
   12.6430   -0.8770   22.2380 C   0  0  0  0  0  0  0  0  0  0  0  0
    8.8720    0.9500   21.1480 O   0  0  0  0  0  0  0  0  0  0  0  0
   13.7860   -1.6940   21.2050 Cl  0  0  0  0  0  0  0  0  0  0  0  0
   13.0890    0.1080   23.0960 C   0  0  0  0  0  0  0  0  0  0  0  0
    7.0060   -0.3210   19.6400 N   0  0  0  0  0  0  0  0  0  0  0  0
   12.1770    0.6990   23.9590 C   0  0  0  0  0  0  0  0  0  0  0  0
    6.6050    0.4110   17.5780 N   0  0  0  0  0  0  0  0  0  0  0  0
   10.8410    0.3320   23.9210 C   0  0  0  0  0  0  0  0  0  0  0  0
   10.3900   -0.6130   23.0080 C   0  0  0  0  0  0  0  0  0  0  0  0
    8.9130   -0.8180   22.7720 C   0  0  0  0  0  0  0  0  0  0  0  0
    8.4980   -0.1770   21.4610 C   0  0  0  0  0  0  0  0  0  0  0  0
    7.4060   -0.2850   18.3450 C   0  0  0  0  0  0  0  0  0  0  0  0
    5.6050    0.8780   18.4400 C   0  0  0  0  0  0  0  0  0  0  0  0
    4.5810    1.7920   18.2020 C   0  0  0  0  0  0  0  0  0  0  0  0
    3.8040    2.2210   19.2750 C   0  0  0  0  0  0  0  0  0  0  0  0
    4.0410    1.7450   20.5670 C   0  0  0  0  0  0  0  0  0  0  0  0
    5.0560    0.8280   20.8150 C   0  0  0  0  0  0  0  0  0  0  0  0
    5.8210    0.4050   19.7350 C   0  0  0  0  0  0  0  0  0  0  0  0
   11.3160   -1.2480   22.1850 C   0  0  0  0  0  0  0  0  0  0  0  0
  4  2  1  0
  5  2  2  0
  6  1  1  0
  7  5  1  0
  9  7  2  0
 10  9  1  0
 11 10  1  0
 12  3  2  0
 12  1  1  0
 12 11  1  0
 13  8  2  0
 13  6  1  0
 14  8  1  0
 15 14  2  0
 16 15  1  0
 17 16  2  0
 18 17  1  0
 19 18  2  0
 19 14  1  0
 19  6  1  0
 20 10  2  0
 20  2  1  0
M  END
