
     RDKit          3D

 19 20  0  0  0  0  0  0  0  0999 V2000
    8.7390   -1.9550   23.1320 N   0  0  0  0  0  0  0  0  0  0  0  0
   12.6700   -2.0010   22.2380 C   0  0  0  0  0  0  0  0  0  0  0  0
    5.9150   -4.4150   19.6290 O   0  0  0  0  0  0  0  0  0  0  0  0
   12.1150   -0.9110   23.1190 C   0  0  0  0  0  0  0  0  0  0  0  0
    6.4140   -1.4560   21.3520 C   0  0  0  0  0  0  0  0  0  0  0  0
    7.1440   -3.7230   22.1850 C   0  0  0  0  0  0  0  0  0  0  0  0
    7.7110   -2.9800   23.3930 C   0  0  0  0  0  0  0  0  0  0  0  0
    6.5340   -3.3760   19.8420 C   0  0  0  0  0  0  0  0  0  0  0  0
    7.2280   -2.6990   18.6680 C   0  0  0  0  0  0  0  0  0  0  0  0
   12.8390    0.2630   23.2580 C   0  0  0  0  0  0  0  0  0  0  0  0
   12.3880    1.2960   24.0550 C   0  0  0  0  0  0  0  0  0  0  0  0
   11.1970    1.1710   24.7290 C   0  0  0  0  0  0  0  0  0  0  0  0
   10.4620    0.0080   24.6100 C   0  0  0  0  0  0  0  0  0  0  0  0
   10.9090   -1.0540   23.8260 C   0  0  0  0  0  0  0  0  0  0  0  0
   10.0480   -2.2890   23.7060 C   0  0  0  0  0  0  0  0  0  0  0  0
    8.8570   -1.4760   21.7460 C   0  0  0  0  0  0  0  0  0  0  0  0
    7.6820   -0.6430   21.3140 C   0  0  0  0  0  0  0  0  0  0  0  0
    6.6650   -2.8780   21.0840 N   0  0  0  0  0  0  0  0  0  0  0  0
    8.8980   -3.3720   18.4080 S   0  0  0  0  0  0  0  0  0  0  0  0
  4  2  1  0
  7  6  1  0
  7  1  1  0
  8  3  2  0
  9  8  1  0
 10  4  2  0
 11 10  1  0
 12 11  2  0
 13 12  1  0
 14 13  2  0
 14  4  1  0
 15  1  1  0
 15 14  1  0
 16  1  1  0
 17 16  1  0
 17  5  1  0
 18  8  1  0
 18  5  1  0
 18  6  1  0
  9 19  1  0
M  END
