
     RDKit          3D

 20 22  0  0  0  0  0  0  0  0999 V2000
    6.9910    0.3230   17.9840 N   0  0  0  0  0  0  0  0  0  0  0  0
    5.6810    0.2860   22.0960 C   0  0  0  0  0  0  0  0  0  0  0  0
    9.7330    1.1910   21.1990 O   0  0  0  0  0  0  0  0  0  0  0  0
    6.1420    0.2610   20.6620 C   0  0  0  0  0  0  0  0  0  0  0  0
    8.3380   -0.5910   21.3180 N   0  0  0  0  0  0  0  0  0  0  0  0
    5.3020    0.6970   19.6390 C   0  0  0  0  0  0  0  0  0  0  0  0
    8.6990   -4.6190   26.2040 N   0  0  0  0  0  0  0  0  0  0  0  0
    5.7590    0.7030   18.3350 C   0  0  0  0  0  0  0  0  0  0  0  0
   10.0280   -5.2680   24.5240 N   0  0  0  0  0  0  0  0  0  0  0  0
    7.8030   -0.1090   18.9580 C   0  0  0  0  0  0  0  0  0  0  0  0
    7.4360   -0.1640   20.3060 C   0  0  0  0  0  0  0  0  0  0  0  0
    9.4470    0.0990   21.6720 C   0  0  0  0  0  0  0  0  0  0  0  0
   10.3640   -0.5860   22.6690 C   0  0  0  0  0  0  0  0  0  0  0  0
    9.7480   -1.6440   23.5560 C   0  0  2  0  0  0  0  0  0  0  0  0
    8.8730   -1.2870   24.5830 C   0  0  0  0  0  0  0  0  0  0  0  0
    8.4500   -2.2030   25.5340 C   0  0  0  0  0  0  0  0  0  0  0  0
    8.9040   -3.5090   25.4230 C   0  0  0  0  0  0  0  0  0  0  0  0
    9.3870   -5.6280   25.6200 C   0  0  0  0  0  0  0  0  0  0  0  0
    9.7380   -3.9090   24.3810 C   0  0  0  0  0  0  0  0  0  0  0  0
   10.1610   -2.9700   23.4410 C   0  0  0  0  0  0  0  0  0  0  0  0
  4  2  1  0
  6  4  1  0
  8  6  1  0
  8  1  1  0
 10  1  1  0
 11 10  1  0
 11  5  1  0
 11  4  1  0
 12  5  1  0
 12  3  1  0
 13 12  1  0
 14 13  1  1
 15 14  1  0
 16 15  1  0
 17 16  1  0
 17  7  1  0
 18  9  1  0
 18  7  1  0
 19 17  1  0
 19  9  1  0
 20 19  1  0
 20 14  1  0
M  END
$$$$
