
     RDKit          3D

 19 20  0  0  0  0  0  0  0  0999 V2000
    6.4030    0.5830   17.5150 N   0  0  0  0  0  0  0  0  0  0  0  0
    5.0060    1.2440   21.5310 C   0  0  0  0  0  0  0  0  0  0  0  0
    9.0400    1.0270   21.0030 O   0  0  0  0  0  0  0  0  0  0  0  0
   13.7650   -1.8620   21.1030 Cl  0  0  0  0  0  0  0  0  0  0  0  0
    5.5000    0.9910   20.1290 C   0  0  0  0  0  0  0  0  0  0  0  0
    8.1100   -0.7760   18.2590 N   0  0  0  0  0  0  0  0  0  0  0  0
    4.8550    1.5690   19.0430 C   0  0  0  0  0  0  0  0  0  0  0  0
    7.3020   -0.4310   20.9550 N   0  0  0  0  0  0  0  0  0  0  0  0
    5.3300    1.3400   17.7740 C   0  0  0  0  0  0  0  0  0  0  0  0
    7.0490   -0.0160   18.5450 C   0  0  0  0  0  0  0  0  0  0  0  0
    6.6120    0.1770   19.8770 C   0  0  0  0  0  0  0  0  0  0  0  0
    8.4530    0.0520   21.4630 C   0  0  0  0  0  0  0  0  0  0  0  0
    8.9560   -0.6900   22.6860 C   0  0  0  0  0  0  0  0  0  0  0  0
   10.4470   -0.5360   22.8710 C   0  0  2  0  0  0  0  0  0  0  0  0
   10.9670    0.2630   23.8810 C   0  0  0  0  0  0  0  0  0  0  0  0
   12.3330    0.4820   23.9800 C   0  0  0  0  0  0  0  0  0  0  0  0
   13.2020   -0.1130   23.0800 C   0  0  0  0  0  0  0  0  0  0  0  0
   12.6820   -0.9500   22.1160 C   0  0  2  0  0  0  0  0  0  0  0  0
   11.3240   -1.1540   21.9870 C   0  0  0  0  0  0  0  0  0  0  0  0
  5  2  1  0
  7  5  1  0
  9  7  1  0
  9  1  1  0
 10  6  1  0
 10  1  1  0
 11 10  1  0
 11  8  1  0
 11  5  1  0
 12  8  1  0
 12  3  1  0
 13 12  1  0
 14 13  1  6
 15 14  1  0
 16 15  1  0
 17 16  1  0
 18  4  1  1
 18 17  1  0
 19 14  1  0
 19 18  1  0
M  END
$$$$
