
     RDKit          3D

 15 16  0  0  0  0  0  0  0  0999 V2000
    7.5920   -4.6060   21.2150 N   0  0  0  0  0  0  0  0  0  0  0  0
    7.1870   -3.0230   19.3990 C   0  0  0  0  0  0  0  0  0  0  0  0
    5.8210   -4.8930   19.8500 O   0  0  0  0  0  0  0  0  0  0  0  0
    6.8170   -4.2560   20.1980 C   0  0  0  0  0  0  0  0  0  0  0  0
    2.9980   -3.0240   25.2040 O   0  0  0  0  0  0  0  0  0  0  0  0
    7.1210   -5.4620   22.2890 C   0  0  0  0  0  0  0  0  0  0  0  0
    2.6810   -5.2120   24.5090 O   0  0  0  0  0  0  0  0  0  0  0  0
    6.0460   -4.7710   23.0860 C   0  0  0  0  0  0  0  0  0  0  0  0
    6.2180   -3.4610   23.4970 C   0  0  0  0  0  0  0  0  0  0  0  0
    5.2440   -2.7750   24.2260 C   0  0  0  0  0  0  0  0  0  0  0  0
    4.1020   -3.4620   24.5130 C   0  0  0  0  0  0  0  0  0  0  0  0
    2.0580   -4.0990   25.1480 C   0  0  0  0  0  0  0  0  0  0  0  0
    3.9140   -4.7620   24.0990 C   0  0  0  0  0  0  0  0  0  0  0  0
    4.8570   -5.4430   23.3820 C   0  0  0  0  0  0  0  0  0  0  0  0
    8.6350   -3.3100   18.3450 S   0  0  0  0  0  0  0  0  0  0  0  0
  4  3  2  0
  4  2  1  0
  4  1  1  0
  6  1  1  0
  8  6  1  0
  9  8  2  0
 10  9  1  0
 11 10  2  0
 11  5  1  0
 12  7  1  0
 12  5  1  0
 13 11  1  0
 13  7  1  0
 14 13  2  0
 14  8  1  0
  2 15  1  0
M  END
