
     RDKit          3D

 19 20  0  0  0  0  0  0  0  0999 V2000
    3.8140    2.3850   19.0950 N   0  0  0  0  0  0  0  0  0  0  0  0
    5.0290    1.1210   21.4330 C   0  0  0  0  0  0  0  0  0  0  0  0
    8.8660    0.9180   21.0620 O   0  0  0  0  0  0  0  0  0  0  0  0
   13.7470   -1.8450   21.1900 Cl  0  0  0  0  0  0  0  0  0  0  0  0
    5.4890    0.8850   20.0140 C   0  0  0  0  0  0  0  0  0  0  0  0
    6.4380    0.4990   17.3940 N   0  0  0  0  0  0  0  0  0  0  0  0
    4.8940    1.5230   18.9540 C   0  0  0  0  0  0  0  0  0  0  0  0
    7.2500   -0.6510   20.7700 N   0  0  0  0  0  0  0  0  0  0  0  0
    5.4030    1.3060   17.6550 C   0  0  0  0  0  0  0  0  0  0  0  0
    7.0100   -0.1240   18.4230 C   0  0  0  0  0  0  0  0  0  0  0  0
    6.5700    0.0340   19.7290 C   0  0  0  0  0  0  0  0  0  0  0  0
    8.3410   -0.1510   21.3820 C   0  0  2  0  0  0  0  0  0  0  0  0
    8.8210   -0.9560   22.5740 C   0  0  0  0  0  0  0  0  0  0  0  0
   10.2920   -0.7190   22.8330 C   0  0  2  0  0  0  0  0  0  0  0  0
   10.7190    0.1770   23.8070 C   0  0  0  0  0  0  0  0  0  0  0  0
   12.0660    0.4710   23.9590 C   0  0  0  0  0  0  0  0  0  0  0  0
   13.0090   -0.1340   23.1420 C   0  0  0  0  0  0  0  0  0  0  0  0
   12.5780   -1.0550   22.2100 C   0  0  0  0  0  0  0  0  0  0  0  0
   11.2440   -1.3580   22.0480 C   0  0  0  0  0  0  0  0  0  0  0  0
  5  2  1  0
  7  1  1  0
  7  5  1  0
  9  7  1  0
  9  6  1  0
 10  6  1  0
 11 10  1  0
 11  8  1  0
 11  5  1  0
 12  8  1  0
 12  3  1  1
 13 12  1  0
 14 13  1  6
 15 14  1  0
 16 15  1  0
 17 16  1  0
 18  4  1  0
 18 17  1  0
 19 14  1  0
 19 18  1  0
M  END
$$$$
