
     RDKit          3D

 33 34  0  0  0  0  0  0  0  0999 V2000
    8.0690    1.6060   22.9930 N   0  0  0  0  0  0  0  0  0  0  0  0
   13.3460    5.4520   22.5560 C   0  0  0  0  0  0  0  0  0  0  0  0
   12.2250    3.5750   23.4600 O   0  0  0  0  0  0  0  0  0  0  0  0
   13.3160    4.0060   22.5900 C   0  0  0  0  0  0  0  0  0  0  0  0
    7.5250   -1.3870   21.6420 N   0  0  0  0  0  0  0  0  0  0  0  0
   11.2270    2.5910   21.7140 O   0  0  0  0  0  0  0  0  0  0  0  0
   11.2680    2.8410   22.8900 C   0  0  0  0  0  0  0  0  0  0  0  0
    6.6170    0.3870   17.6610 N   0  0  0  0  0  0  0  0  0  0  0  0
    9.0490    1.3740   20.9750 O   0  0  0  0  0  0  0  0  0  0  0  0
   10.2390    2.3930   23.8840 C   0  0  0  0  0  0  0  0  0  0  0  0
    5.5640   -2.4920   21.4780 O   0  0  0  0  0  0  0  0  0  0  0  0
    8.8480    2.7640   23.4100 C   0  0  0  0  0  0  0  0  0  0  0  0
    8.1780    1.0570   21.7830 C   0  0  0  0  0  0  0  0  0  0  0  0
    7.1050    0.0200   21.4130 C   0  0  1  0  0  0  0  0  0  0  0  0
    6.7360   -2.3900   21.1520 C   0  0  0  0  0  0  0  0  0  0  0  0
    7.2680   -3.2060   19.9910 C   0  0  0  0  0  0  0  0  0  0  0  0
    7.9890   -4.4610   20.4060 C   0  0  0  0  0  0  0  0  0  0  0  0
    8.7620   -1.6480   22.3330 C   0  0  0  0  0  0  0  0  0  0  0  0
    9.9690   -1.6300   21.6430 C   0  0  0  0  0  0  0  0  0  0  0  0
   11.1690   -1.6970   22.3310 C   0  0  0  0  0  0  0  0  0  0  0  0
   11.2030   -1.7980   23.7200 C   0  0  0  0  0  0  0  0  0  0  0  0
    9.9900   -1.8580   24.4010 C   0  0  0  0  0  0  0  0  0  0  0  0
    8.7820   -1.7860   23.7230 C   0  0  0  0  0  0  0  0  0  0  0  0
   12.5280   -1.7750   24.4950 C   0  0  0  0  0  0  0  0  0  0  0  0
   12.6640   -0.4440   25.2340 C   0  0  0  0  0  0  0  0  0  0  0  0
   13.7290   -1.9230   23.5630 C   0  0  0  0  0  0  0  0  0  0  0  0
   12.5920   -2.9120   25.5260 C   0  0  0  0  0  0  0  0  0  0  0  0
    6.4590    0.3240   20.0670 C   0  0  0  0  0  0  0  0  0  0  0  0
    7.0780    0.0180   18.8620 C   0  0  0  0  0  0  0  0  0  0  0  0
    5.4810    1.0900   17.6310 C   0  0  0  0  0  0  0  0  0  0  0  0
    4.7760    1.4420   18.7690 C   0  0  0  0  0  0  0  0  0  0  0  0
    5.2760    1.0470   19.9960 C   0  0  0  0  0  0  0  0  0  0  0  0
    8.2690   -3.6440   18.7840 S   0  0  0  0  0  0  0  0  0  0  0  0
  4  3  1  0
  4  2  1  0
  7  6  2  0
  7  3  1  0
 10  7  1  0
 12 10  1  0
 12  1  1  0
 13  9  2  0
 13  1  1  0
 14 13  1  6
 14  5  1  0
 15 11  2  0
 15  5  1  0
 16 15  1  0
 17 16  1  0
 18  5  1  0
 19 18  2  0
 20 19  1  0
 21 20  2  0
 22 21  1  0
 23 22  2  0
 23 18  1  0
 24 21  1  0
 24 25  1  0
 26 24  1  0
 27 24  1  0
 28 14  1  0
 29 28  1  0
 29  8  2  0
 30  8  1  0
 31 30  2  0
 32 31  1  0
 32 28  2  0
 16 33  1  0
M  END
