
     RDKit          3D

  8  8  0  0  0  0  0  0  0  0999 V2000
   -0.4380    6.2680  -17.4960 C   0  0  0  0  0  0  0  0  0  0  0  0
   -0.5640    5.1800  -18.3410 C   0  0  0  0  0  0  0  0  0  0  0  0
   -0.1830    5.1880  -19.8010 C   0  0  0  0  0  0  0  0  0  0  0  0
   -1.0610    4.0900  -17.6750 O   0  0  0  0  0  0  0  0  0  0  0  0
   -1.3010    4.4800  -16.3080 N   0  0  0  0  0  0  0  0  0  0  0  0
   -0.9140    5.8010  -16.2530 C   0  0  0  0  0  0  0  0  0  0  0  0
   -0.9850    6.5730  -14.9980 C   0  0  0  0  0  0  0  0  0  0  0  0
   -0.1470    7.4340  -14.7510 O   0  0  0  0  0  0  0  0  0  0  0  0
  2  1  1  0
  3  2  1  0
  4  2  1  0
  5  4  1  0
  6  5  1  0
  6  1  1  0
  7  6  1  0
  8  7  1  0
M  END
