
     RDKit          3D

 24 27  0  0  0  0  0  0  0  0999 V2000
    8.8710    0.7070   21.1840 O   0  0  0  0  0  0  0  0  0  0  0  0
    8.4300   -0.4350   21.2780 C   0  0  0  0  0  0  0  0  0  0  0  0
    8.9340   -1.4010   22.3290 C   0  0  0  0  0  0  0  0  0  0  0  0
   10.3540   -1.0090   22.6660 C   0  0  0  0  0  0  0  0  0  0  0  0
   10.6300   -0.0610   23.6540 C   0  0  0  0  0  0  0  0  0  0  0  0
    9.7020    0.5450   24.4690 O   0  0  0  0  0  0  0  0  0  0  0  0
   10.4400    1.4250   25.3670 C   0  0  0  0  0  0  0  0  0  0  0  0
   11.8960    1.4620   24.9030 C   0  0  0  0  0  0  0  0  0  0  0  0
   11.9260    0.3740   23.8650 C   0  0  0  0  0  0  0  0  0  0  0  0
   12.9750   -0.1520   23.1210 C   0  0  0  0  0  0  0  0  0  0  0  0
   11.4130   -1.5400   21.9330 C   0  0  0  0  0  0  0  0  0  0  0  0
   12.7020   -1.1120   22.1740 C   0  0  0  0  0  0  0  0  0  0  0  0
   14.0140   -1.8230   21.2770 Cl  0  0  0  0  0  0  0  0  0  0  0  0
    7.5780   -0.9560   20.3930 N   0  0  0  0  0  0  0  0  0  0  0  0
    6.6390   -0.3490   19.5490 C   0  0  0  0  0  0  0  0  0  0  0  0
    5.6110    0.5270   20.0300 C   0  0  0  0  0  0  0  0  0  0  0  0
    5.1500    0.5420   21.3720 C   0  0  0  0  0  0  0  0  0  0  0  0
    4.0360    1.2490   21.7260 C   0  0  0  0  0  0  0  0  0  0  0  0
    3.3330    1.9770   20.7840 C   0  0  0  0  0  0  0  0  0  0  0  0
    3.7500    2.0250   19.4860 C   0  0  0  0  0  0  0  0  0  0  0  0
    4.8950    1.3040   19.0720 C   0  0  0  0  0  0  0  0  0  0  0  0
    5.2980    1.2160   17.7210 C   0  0  0  0  0  0  0  0  0  0  0  0
    6.2790    0.4490   17.2880 N   0  0  0  0  0  0  0  0  0  0  0  0
    6.8970   -0.3250   18.1850 C   0  0  0  0  0  0  0  0  0  0  0  0
  2  1  2  0
  3  2  1  0
  4  3  1  0
  5  4  2  0
  6  5  1  0
  7  6  1  0
  8  7  1  0
  9  5  1  0
  9  8  1  0
 10  9  2  0
 11  4  1  0
 12 11  2  0
 12 10  1  0
 13 12  1  0
 14  2  1  0
 15 14  1  0
 16 15  1  0
 17 16  2  0
 18 17  1  0
 19 18  2  0
 20 19  1  0
 21 20  2  0
 21 16  1  0
 22 21  1  0
 23 22  2  0
 24 23  1  0
 24 15  2  0
M  END
