
     RDKit          3D

 21 22  0  0  0  0  0  0  0  0999 V2000
    8.2270    0.0940   25.1670 O   0  0  0  0  0  0  0  0  0  0  0  0
    8.5110   -0.9340   24.5560 C   0  0  0  0  0  0  0  0  0  0  0  0
    7.6800   -2.1940   24.6950 C   0  0  0  0  0  0  0  0  0  0  0  0
    8.4950   -3.4220   25.0350 C   0  0  0  0  0  0  0  0  0  0  0  0
    9.4000   -3.9580   24.1300 C   0  0  0  0  0  0  0  0  0  0  0  0
   10.1490   -5.0420   24.3700 N   0  0  0  0  0  0  0  0  0  0  0  0
    9.9990   -5.6350   25.5600 C   0  0  0  0  0  0  0  0  0  0  0  0
    9.1220   -5.1870   26.5270 C   0  0  0  0  0  0  0  0  0  0  0  0
    8.3630   -4.0680   26.2520 C   0  0  0  0  0  0  0  0  0  0  0  0
    9.5260   -1.0020   23.6980 N   0  0  0  0  0  0  0  0  0  0  0  0
   10.1140    0.1880   23.1260 C   0  0  0  0  0  0  0  0  0  0  0  0
    9.4900    0.6540   21.8220 C   0  0  0  0  0  0  0  0  0  0  0  0
    9.9180    1.6510   21.2580 O   0  0  0  0  0  0  0  0  0  0  0  0
    8.4470   -0.0800   21.3600 N   0  0  0  0  0  0  0  0  0  0  0  0
    7.5400    0.2460   20.3160 C   0  0  0  0  0  0  0  0  0  0  0  0
    6.3490    0.9300   20.6340 C   0  0  0  0  0  0  0  0  0  0  0  0
    6.0450    1.3870   22.0370 C   0  0  0  0  0  0  0  0  0  0  0  0
    7.7630   -0.1020   18.9800 C   0  0  0  0  0  0  0  0  0  0  0  0
    6.9050    0.1680   17.9870 N   0  0  0  0  0  0  0  0  0  0  0  0
    5.7770    0.8050   18.3070 C   0  0  0  0  0  0  0  0  0  0  0  0
    5.4630    1.2000   19.5910 C   0  0  0  0  0  0  0  0  0  0  0  0
  2  1  1  0
  3  2  1  0
  4  3  1  0
  5  4  1  0
  6  5  1  0
  7  6  1  0
  8  7  1  0
  9  8  1  0
  9  4  1  0
 10  2  1  0
 11 10  1  0
 12 11  1  0
 13 12  1  0
 14 12  1  0
 15 14  1  0
 16 15  1  0
 17 16  1  0
 18 15  1  0
 19 18  1  0
 20 19  1  0
 21 20  1  0
 21 16  1  0
M  END
$$$$
