
     RDKit          3D

 21 23  0  0  0  0  0  0  0  0999 V2000
    9.3470    0.7250   21.1080 O   0  0  0  0  0  0  0  0  0  0  0  0
    8.8720   -0.3490   21.4730 C   0  0  0  0  0  0  0  0  0  0  0  0
    7.4320   -0.7220   21.1760 C   0  0  0  0  0  0  0  0  0  0  0  0
    6.7770    0.0020   20.0180 C   0  0  0  0  0  0  0  0  0  0  0  0
    7.2500   -0.1450   18.7260 C   0  0  0  0  0  0  0  0  0  0  0  0
    6.6850    0.4060   17.6460 N   0  0  0  0  0  0  0  0  0  0  0  0
    5.5830    1.1360   17.8420 C   0  0  0  0  0  0  0  0  0  0  0  0
    5.0360    1.3600   19.0890 C   0  0  0  0  0  0  0  0  0  0  0  0
    5.6370    0.7990   20.2100 C   0  0  0  0  0  0  0  0  0  0  0  0
    5.0840    1.0960   21.5800 C   0  0  0  0  0  0  0  0  0  0  0  0
    9.5560   -1.2810   22.1870 N   0  0  0  0  0  0  0  0  0  0  0  0
   10.9070   -1.3130   22.6390 C   0  0  0  0  0  0  0  0  0  0  0  0
   11.2160   -1.9730   23.8530 C   0  0  0  0  0  0  0  0  0  0  0  0
   10.1200   -2.5730   24.6980 C   0  0  0  0  0  0  0  0  0  0  0  0
   10.5710   -2.9590   26.0390 N   0  0  0  0  0  0  0  0  0  0  0  0
   11.8610   -3.6780   25.9940 C   0  0  0  0  0  0  0  0  0  0  0  0
   12.9650   -2.7660   25.5160 C   0  0  0  0  0  0  0  0  0  0  0  0
   12.5620   -2.0570   24.2470 C   0  0  0  0  0  0  0  0  0  0  0  0
   13.5510   -1.4790   23.4540 C   0  0  0  0  0  0  0  0  0  0  0  0
   13.2280   -0.8290   22.2770 C   0  0  0  0  0  0  0  0  0  0  0  0
   11.9130   -0.7470   21.8620 C   0  0  0  0  0  0  0  0  0  0  0  0
  2  1  2  0
  3  2  1  0
  4  3  1  0
  5  4  2  0
  6  5  1  0
  7  6  2  0
  8  7  1  0
  9  8  2  0
  9  4  1  0
 10  9  1  0
 11  2  1  0
 12 11  1  0
 13 12  1  0
 14 13  1  0
 15 14  1  0
 16 15  1  0
 17 16  1  0
 18 17  1  0
 18 13  2  0
 19 18  1  0
 20 19  2  0
 21 20  1  0
 21 12  2  0
M  END
