
     RDKit          3D

 23 25  0  0  0  0  0  0  0  0999 V2000
    6.0050   -4.2640   19.5820 O   0  0  0  0  0  0  0  0  0  0  0  0
    6.6070   -3.2030   19.6480 C   0  0  0  0  0  0  0  0  0  0  0  0
    7.1580   -2.5300   18.4040 C   0  0  0  0  0  0  0  0  0  0  0  0
    6.8500   -2.5930   20.8250 N   0  0  0  0  0  0  0  0  0  0  0  0
    7.6690   -1.3920   20.9940 C   0  0  0  0  0  0  0  0  0  0  0  0
    8.9450   -1.7740   21.7010 C   0  0  0  0  0  0  0  0  0  0  0  0
    8.6440   -2.3920   23.0090 N   0  0  0  0  0  0  0  0  0  0  0  0
    7.7380   -3.5530   22.8740 C   0  0  0  0  0  0  0  0  0  0  0  0
    6.4790   -3.1870   22.1110 C   0  0  0  0  0  0  0  0  0  0  0  0
    9.9000   -2.7820   23.6960 C   0  0  1  0  0  0  0  0  0  0  0  0
   10.9340   -1.6600   23.6930 C   0  0  0  0  0  0  0  0  0  0  0  0
   10.9020   -0.6490   24.6470 C   0  0  0  0  0  0  0  0  0  0  0  0
   11.8520    0.3620   24.6400 C   0  0  0  0  0  0  0  0  0  0  0  0
   12.8450    0.3790   23.6720 C   0  0  0  0  0  0  0  0  0  0  0  0
   12.8790   -0.6120   22.7060 C   0  0  0  0  0  0  0  0  0  0  0  0
   11.9340   -1.6290   22.7210 C   0  0  0  0  0  0  0  0  0  0  0  0
    9.6420   -3.5100   25.0150 C   0  0  0  0  0  0  0  0  0  0  0  0
   10.1810   -4.7760   25.2220 C   0  0  0  0  0  0  0  0  0  0  0  0
    9.8670   -5.5020   26.3600 C   0  0  0  0  0  0  0  0  0  0  0  0
    9.0190   -4.9690   27.3140 C   0  0  0  0  0  0  0  0  0  0  0  0
    8.4930   -3.7040   27.1330 C   0  0  0  0  0  0  0  0  0  0  0  0
    8.8080   -2.9750   25.9920 C   0  0  0  0  0  0  0  0  0  0  0  0
    8.7850   -3.2890   18.2590 S   0  0  0  0  0  0  0  0  0  0  0  0
  2  1  2  0
  3  2  1  0
  4  2  1  0
  5  4  1  0
  6  5  1  0
  7  6  1  0
  8  7  1  0
  9  4  1  0
  9  8  1  0
 10  7  1  0
 10 11  1  1
 12 11  2  0
 13 12  1  0
 14 13  2  0
 15 14  1  0
 16 15  2  0
 16 11  1  0
 17 10  1  0
 18 17  2  0
 19 18  1  0
 20 19  2  0
 21 20  1  0
 22 21  2  0
 22 17  1  0
  3 23  1  0
M  END
