
     RDKit          3D

 37 40  0  0  0  0  0  0  0  0999 V2000
    5.6070   -2.0120   21.2340 O   0  0  0  0  0  0  0  0  0  0  0  0
    6.7120   -2.1560   21.7150 C   0  0  2  0  0  0  0  0  0  0  0  0
    7.0940   -3.5490   22.1420 C   0  0  0  0  0  0  0  0  0  0  0  0
    6.1080   -4.4140   21.7570 O   0  0  0  0  0  0  0  0  0  0  0  0
    6.4950   -5.6610   22.1900 C   0  0  0  0  0  0  0  0  0  0  0  0
    7.6590   -5.6000   22.8070 C   0  0  0  0  0  0  0  0  0  0  0  0
    8.0670   -4.2340   22.7910 C   0  0  0  0  0  0  0  0  0  0  0  0
    7.5560   -1.1260   21.9630 N   0  0  0  0  0  0  0  0  0  0  0  0
    8.8350   -1.3300   22.5900 C   0  0  2  0  0  0  0  0  0  0  0  0
    9.0050   -1.0700   23.9470 C   0  0  0  0  0  0  0  0  0  0  0  0
   10.2620   -1.1560   24.5180 C   0  0  0  0  0  0  0  0  0  0  0  0
    9.9410   -1.7190   21.8270 C   0  0  0  0  0  0  0  0  0  0  0  0
   11.1900   -1.8060   22.4110 C   0  0  0  0  0  0  0  0  0  0  0  0
   11.3740   -1.5230   23.7620 C   0  0  0  0  0  0  0  0  0  0  0  0
   12.7520   -1.6390   24.4220 C   0  0  1  0  0  0  0  0  0  0  0  0
   12.7130   -2.7810   25.4440 C   0  0  0  0  0  0  0  0  0  0  0  0
   13.8640   -1.9240   23.3990 C   0  0  0  0  0  0  0  0  0  0  0  0
   13.0990   -0.3360   25.1550 C   0  0  0  0  0  0  0  0  0  0  0  0
    7.8280   -0.1420   20.8820 C   0  0  1  0  0  0  0  0  0  0  0  0
    6.7190    0.1530   19.8870 C   0  0  2  0  0  0  0  0  0  0  0  0
    6.9110   -0.1890   18.5530 C   0  0  0  0  0  0  0  0  0  0  0  0
    6.2340    0.3450   17.5310 N   0  0  0  0  0  0  0  0  0  0  0  0
    5.2910    1.2510   17.8300 C   0  0  0  0  0  0  0  0  0  0  0  0
    4.9700    1.6150   19.1280 C   0  0  0  0  0  0  0  0  0  0  0  0
    5.6850    1.0380   20.1650 C   0  0  0  0  0  0  0  0  0  0  0  0
    8.4680    1.1320   21.4620 C   0  0  0  0  0  0  0  0  0  0  0  0
    9.5260    1.5440   21.0160 O   0  0  0  0  0  0  0  0  0  0  0  0
    7.8380    1.7220   22.4770 N   0  0  0  0  0  0  0  0  0  0  0  0
    8.4350    2.8600   23.1760 C   0  0  0  0  0  0  0  0  0  0  0  0
    9.6620    2.4540   24.0390 C   0  0  0  0  0  0  0  0  0  0  0  0
   10.9700    3.1460   23.7070 C   0  0  0  0  0  0  0  0  0  0  0  0
   11.3950    4.2400   24.4530 C   0  0  0  0  0  0  0  0  0  0  0  0
   12.5350    4.9100   24.0650 C   0  0  0  0  0  0  0  0  0  0  0  0
   12.9080    6.0060   24.7770 F   0  0  0  0  0  0  0  0  0  0  0  0
   13.2900    4.5480   22.9840 C   0  0  0  0  0  0  0  0  0  0  0  0
   12.8900    3.4350   22.2660 C   0  0  0  0  0  0  0  0  0  0  0  0
   11.7470    2.7350   22.6300 C   0  0  0  0  0  0  0  0  0  0  0  0
  2  1  1  1
  3  2  1  0
  4  3  1  0
  5  4  1  0
  6  5  1  0
  7  6  1  0
  7  3  1  0
  8  2  1  0
  9  8  1  6
 10  9  1  0
 11 10  1  0
 12  9  1  0
 13 12  1  0
 14 11  1  0
 14 13  1  0
 15 14  1  0
 15 16  1  1
 17 15  1  0
 18 15  1  0
 19  8  1  0
 20 19  1  0
 20 21  1  6
 22 21  1  0
 23 22  1  0
 24 23  1  0
 25 24  1  0
 25 20  1  0
 19 26  1  1
 27 26  1  0
 28 26  1  0
 29 28  1  0
 30 29  1  0
 31 30  1  0
 32 31  1  0
 33 32  1  0
 34 33  1  0
 35 33  1  0
 36 35  1  0
 37 36  1  0
 37 31  1  0
M  END
$$$$
