
     RDKit          3D

  5  4  0  0  0  0  0  0  0  0999 V2000
   10.2630   -5.8010   25.0960 N   0  0  0  0  0  0  0  0  0  0  0  0
    8.8220   -3.5490   23.3680 C   0  0  0  0  0  0  0  0  0  0  0  0
    8.2100   -4.7890   24.0210 C   0  0  0  0  0  0  0  0  0  0  0  0
    9.1000   -5.2470   25.1770 C   0  0  0  0  0  0  0  0  0  0  0  0
    8.5860   -5.0380   26.4480 N   0  0  0  0  0  0  0  0  0  0  0  0
  3  2  1  0
  4  1  2  0
  4  3  1  0
  5  4  1  0
M  END
