
     RDKit          3D

 27 30  0  0  0  0  0  0  0  0999 V2000
   13.6210   -0.7860   21.8860 S   0  0  0  0  0  0  0  0  0  0  0  0
    8.8170   -4.9500   26.0080 N   0  0  0  0  0  0  0  0  0  0  0  0
    7.5810   -0.4760   18.8190 N   0  0  0  0  0  0  0  0  0  0  0  0
    7.1090   -0.4200   20.0900 N   0  0  0  0  0  0  0  0  0  0  0  0
    8.9280   -3.7760   25.2850 C   0  0  2  0  0  0  0  0  0  0  0  0
   11.9600   -0.5540   22.1690 C   0  0  0  0  0  0  0  0  0  0  0  0
    5.1930    0.8200   21.1830 C   0  0  0  0  0  0  0  0  0  0  0  0
   11.7080    0.3670   23.1480 C   0  0  0  0  0  0  0  0  0  0  0  0
    8.0670   -2.7000   25.5150 C   0  0  0  0  0  0  0  0  0  0  0  0
    9.8600   -3.6930   24.2570 C   0  0  0  0  0  0  0  0  0  0  0  0
    3.9230    2.0660   19.5380 C   0  0  0  0  0  0  0  0  0  0  0  0
    9.9310   -2.5590   23.4680 C   0  0  0  0  0  0  0  0  0  0  0  0
    9.0980   -1.4700   23.7120 C   0  0  2  0  0  0  0  0  0  0  0  0
   14.0270    0.3850   23.1040 C   0  0  0  0  0  0  0  0  0  0  0  0
    7.9000   -0.9910   21.1560 C   0  0  0  0  0  0  0  0  0  0  0  0
    4.1330    1.6570   20.8540 C   0  0  0  0  0  0  0  0  0  0  0  0
   12.9090    0.9080   23.6820 C   0  0  0  0  0  0  0  0  0  0  0  0
    8.8060    0.0600   21.7890 C   0  0  0  0  0  0  0  0  0  0  0  0
    6.0280    0.4050   20.1520 C   0  0  0  0  0  0  0  0  0  0  0  0
    5.8430    0.8240   18.8390 C   0  0  0  0  0  0  0  0  0  0  0  0
    7.7730   -5.2190   26.9710 C   0  0  0  0  0  0  0  0  0  0  0  0
    9.3290   -0.2380   23.0150 N   0  0  0  0  0  0  0  0  0  0  0  0
    9.0610    1.0990   21.1940 O   0  0  0  0  0  0  0  0  0  0  0  0
   10.3000    0.6920   23.5790 C   0  0  0  0  0  0  0  0  0  0  0  0
    8.1500   -1.5570   24.7330 C   0  0  0  0  0  0  0  0  0  0  0  0
    4.7800    1.6640   18.5200 C   0  0  0  0  0  0  0  0  0  0  0  0
    6.8280    0.2650   18.0560 N   0  0  0  0  0  0  0  0  0  0  0  0
  4  3  1  0
  5  2  1  6
  6  1  1  0
  8  6  1  0
  9  5  1  0
 10  5  1  0
 12 10  1  0
 13 12  1  0
 14  1  1  0
 15  4  1  0
 16 11  1  0
 16  7  1  0
 17 14  1  0
 17  8  1  0
 18 15  1  0
 19  7  1  0
 19  4  1  0
 20 19  1  0
 21  2  1  0
 22 18  1  0
 13 22  1  1
 23 18  1  0
 24 22  1  0
 24  8  1  0
 25 13  1  0
 25  9  1  0
 26 11  1  0
 26 20  1  0
 27 20  1  0
 27  3  1  0
M  END
$$$$
