
     RDKit          3D

 11 11  0  0  0  0  0  0  0  0999 V2000
    9.4410    5.1560   22.9680 N   0  0  0  0  0  0  0  0  0  0  0  0
   12.5320    1.1070   23.1290 C   0  0  0  0  0  0  0  0  0  0  0  0
   10.2800    5.2200   25.2730 O   0  0  0  0  0  0  0  0  0  0  0  0
   11.2910    1.1760   23.7690 C   0  0  0  0  0  0  0  0  0  0  0  0
   11.6450    6.1700   23.4760 O   0  0  0  0  0  0  0  0  0  0  0  0
   10.7480    2.4480   24.0290 C   0  0  0  0  0  0  0  0  0  0  0  0
   11.4200    3.6360   23.6610 C   0  0  0  0  0  0  0  0  0  0  0  0
   12.6660    3.5030   23.0310 C   0  0  0  0  0  0  0  0  0  0  0  0
   13.2280    2.2560   22.7660 C   0  0  0  0  0  0  0  0  0  0  0  0
   13.3350   -0.6440   22.6770 Br  0  0  0  0  0  0  0  0  0  0  0  0
   10.7570    5.1590   23.9470 S   0  0  2  0  0  0  0  0  0  0  0  0
  4  2  1  0
  6  4  1  0
  7  6  1  0
  8  7  1  0
  9  8  1  0
  9  2  1  0
 10  2  1  0
 11  3  1  0
 11  1  1  6
 11  7  1  0
 11  5  1  0
M  END
$$$$
