
     RDKit          3D

 20 21  0  0  0  0  0  0  0  0999 V2000
    9.3300    0.5580   21.0960 O   0  0  0  0  0  0  0  0  0  0  0  0
    8.4130    0.1140   21.7790 C   0  0  2  0  0  0  0  0  0  0  0  0
    7.1200    0.1240   21.3940 N   0  0  0  0  0  0  0  0  0  0  0  0
    6.5560    0.2520   20.1010 C   0  0  2  0  0  0  0  0  0  0  0  0
    7.2820    0.0020   18.9360 C   0  0  0  0  0  0  0  0  0  0  0  0
    6.8890    0.3840   17.7160 N   0  0  0  0  0  0  0  0  0  0  0  0
    5.7290    1.0400   17.6260 C   0  0  0  0  0  0  0  0  0  0  0  0
    4.9260    1.3190   18.7110 C   0  0  0  0  0  0  0  0  0  0  0  0
    5.3210    0.9150   19.9840 C   0  0  0  0  0  0  0  0  0  0  0  0
    4.4650    1.2250   21.1840 C   0  0  0  0  0  0  0  0  0  0  0  0
    8.6380   -0.4030   23.1850 C   0  0  0  0  0  0  0  0  0  0  0  0
    9.7370   -1.4880   23.3250 C   0  0  2  0  0  0  0  0  0  0  0  0
    9.4690   -2.5740   22.2710 C   0  0  0  0  0  0  0  0  0  0  0  0
    9.6020   -2.1460   24.7030 C   0  0  0  0  0  0  0  0  0  0  0  0
   11.1230   -0.8460   23.1810 C   0  0  0  0  0  0  0  0  0  0  0  0
   11.4680    0.2610   23.9530 C   0  0  0  0  0  0  0  0  0  0  0  0
   12.6950    0.8850   23.7880 C   0  0  0  0  0  0  0  0  0  0  0  0
   13.6000    0.4040   22.8640 C   0  0  0  0  0  0  0  0  0  0  0  0
   13.2830   -0.7030   22.1080 C   0  0  0  0  0  0  0  0  0  0  0  0
   12.0530   -1.3230   22.2590 C   0  0  0  0  0  0  0  0  0  0  0  0
  2  1  1  1
  3  2  1  0
  4  3  1  1
  5  4  1  0
  6  5  1  0
  7  6  1  0
  8  7  1  0
  9  8  1  0
  9  4  1  0
 10  9  1  0
 11  2  1  0
 12 11  1  0
 12 13  1  6
 14 12  1  0
 15 12  1  0
 16 15  1  0
 17 16  1  0
 18 17  1  0
 19 18  1  0
 20 19  1  0
 20 15  1  0
M  END
$$$$
