
     RDKit          3D

 26 28  0  0  0  0  0  0  0  0999 V2000
    9.7140   -0.3350   23.8770 N   0  0  0  0  0  0  0  0  0  0  0  0
    8.5110   -0.2650   24.7120 C   0  0  0  0  0  0  0  0  0  0  0  0
    9.5930    0.8920   21.0920 O   0  0  0  0  0  0  0  0  0  0  0  0
    9.6040   -1.0050   22.5680 C   0  0  0  0  0  0  0  0  0  0  0  0
    7.8120   -0.5330   21.0310 N   0  0  0  0  0  0  0  0  0  0  0  0
   10.8460    0.7900   25.7380 O   0  0  0  0  0  0  0  0  0  0  0  0
    9.0140   -0.1180   21.4860 C   0  0  0  0  0  0  0  0  0  0  0  0
    6.7650    0.5190   17.6480 N   0  0  0  0  0  0  0  0  0  0  0  0
   11.9700    0.5840   23.5450 O   0  0  0  0  0  0  0  0  0  0  0  0
    7.0440    0.0440   19.9920 C   0  0  0  0  0  0  0  0  0  0  0  0
    9.7940   -2.5810   25.5210 N   0  0  0  0  0  0  0  0  0  0  0  0
    7.4710    0.0100   18.6630 C   0  0  0  0  0  0  0  0  0  0  0  0
    5.5890    1.0850   17.9410 C   0  0  0  0  0  0  0  0  0  0  0  0
    5.0810    1.1710   19.2220 C   0  0  0  0  0  0  0  0  0  0  0  0
    5.8090    0.6480   20.2880 C   0  0  0  0  0  0  0  0  0  0  0  0
    5.2880    0.7510   21.6990 C   0  0  0  0  0  0  0  0  0  0  0  0
   11.9070   -1.4920   25.1020 C   0  0  0  0  0  0  0  0  0  0  0  0
   13.2750   -1.5240   25.0690 C   0  0  0  0  0  0  0  0  0  0  0  0
   13.9620   -2.6140   25.5710 C   0  0  0  0  0  0  0  0  0  0  0  0
   13.2920   -3.6820   26.0850 C   0  0  0  0  0  0  0  0  0  0  0  0
   11.8770   -3.7120   26.0970 C   0  0  0  0  0  0  0  0  0  0  0  0
   11.1130   -4.8340   26.4950 C   0  0  0  0  0  0  0  0  0  0  0  0
    9.7540   -4.8070   26.3970 C   0  0  0  0  0  0  0  0  0  0  0  0
    9.1440   -3.6670   25.9100 C   0  0  0  0  0  0  0  0  0  0  0  0
   11.1580   -2.5970   25.6050 C   0  0  0  0  0  0  0  0  0  0  0  0
   11.1440    0.0250   24.5680 S   0  0  2  0  0  0  0  0  0  0  0  0
  2  1  1  0
  4  1  1  0
  7  5  1  0
  7  3  2  0
  7  4  1  0
 10  5  1  0
 12 10  1  0
 12  8  2  0
 13  8  1  0
 14 13  2  0
 15 14  1  0
 15 10  2  0
 16 15  1  0
 18 17  2  0
 19 18  1  0
 20 19  2  0
 21 20  1  0
 22 21  1  0
 23 22  2  0
 24 23  1  0
 24 11  2  0
 25 11  1  0
 25 21  2  0
 25 17  1  0
 26  6  2  0
 26  1  1  6
 26 17  1  0
 26  9  2  0
M  END
