
     RDKit          3D

 29 30  0  0  0  0  0  0  0  0999 V2000
    6.9200    3.7250   22.6480 C   0  0  0  0  0  0  0  0  0  0  0  0
    6.5270    2.5750   23.3400 C   0  0  0  0  0  0  0  0  0  0  0  0
    5.1710    2.3120   23.5340 C   0  0  0  0  0  0  0  0  0  0  0  0
    4.1980    3.1870   23.0470 C   0  0  0  0  0  0  0  0  0  0  0  0
    4.5790    4.3340   22.3580 C   0  0  0  0  0  0  0  0  0  0  0  0
    5.9350    4.5920   22.1610 C   0  0  0  0  0  0  0  0  0  0  0  0
    8.4100    4.0590   22.4030 C   0  0  0  0  0  0  0  0  0  0  0  0
    9.2760    3.1230   22.9940 O   0  0  0  0  0  0  0  0  0  0  0  0
    9.5990    1.9760   22.2330 C   0  0  0  0  0  0  0  0  0  0  0  0
    9.5040    1.9590   21.0430 O   0  0  0  0  0  0  0  0  0  0  0  0
   10.0730    0.7990   22.9450 N   0  0  0  0  0  0  0  0  0  0  0  0
   10.2830   -0.4620   22.2780 C   0  0  1  0  0  0  0  0  0  0  0  0
   10.8570   -1.4310   23.3020 C   0  0  0  0  0  0  0  0  0  0  0  0
   12.3670   -1.2150   23.4440 C   0  0  2  0  0  0  0  0  0  0  0  0
   13.0390   -1.5090   22.1110 C   0  0  0  0  0  0  0  0  0  0  0  0
   12.9660   -2.1450   24.5110 C   0  0  0  0  0  0  0  0  0  0  0  0
    8.9240   -0.9720   21.8160 C   0  0  0  0  0  0  0  0  0  0  0  0
    8.0380   -0.9960   22.5940 O   0  0  0  0  0  0  0  0  0  0  0  0
    8.6950   -1.4190   20.4490 N   0  0  0  0  0  0  0  0  0  0  0  0
    7.3750   -1.9070   20.0720 C   0  0  2  0  0  0  0  0  0  0  0  0
    7.5030   -3.3760   19.6350 C   0  0  0  0  0  0  0  0  0  0  0  0
    6.2640   -4.0320   19.6290 O   0  0  0  0  0  0  0  0  0  0  0  0
    6.8550   -1.0770   18.9050 C   0  0  0  0  0  0  0  0  0  0  0  0
    6.4670    0.3200   19.4170 C   0  0  2  0  0  0  0  0  0  0  0  0
    5.2890    0.2030   20.3910 C   0  0  0  0  0  0  0  0  0  0  0  0
    4.3200    1.3450   19.9920 C   0  0  0  0  0  0  0  0  0  0  0  0
    4.7120    1.7540   18.6710 N   0  0  0  0  0  0  0  0  0  0  0  0
    6.0190    1.1320   18.3030 C   0  0  0  0  0  0  0  0  0  0  0  0
    6.6120    1.2800   17.2710 O   0  0  0  0  0  0  0  0  0  0  0  0
  2  1  2  0
  3  2  1  0
  4  3  2  0
  5  4  1  0
  6  5  2  0
  6  1  1  0
  7  1  1  0
  8  7  1  0
  9  8  1  0
 10  9  2  0
 11  9  1  0
 12 11  1  0
 12 13  1  1
 14 13  1  0
 14 15  1  6
 16 14  1  0
 17 12  1  0
 18 17  2  0
 19 17  1  0
 20 19  1  0
 20 21  1  6
 22 21  1  0
 23 20  1  0
 24 23  1  6
 25 24  1  0
 26 25  1  0
 27 26  1  0
 28 27  1  0
 28 24  1  0
 29 28  2  0
M  END
$$$$
