
     RDKit          3D

 17 19  0  0  0  0  0  0  0  0999 V2000
    9.2250    1.1090   21.0440 O   0  0  0  0  0  0  0  0  0  0  0  0
    8.6680    0.1390   21.5380 C   0  0  0  0  0  0  0  0  0  0  0  0
    9.1710   -0.5180   22.7990 C   0  0  2  0  0  0  0  0  0  0  0  0
   10.4080    0.1330   23.4720 C   0  0  0  0  0  0  0  0  0  0  0  0
   11.2670   -0.8600   22.6660 C   0  0  1  0  0  0  0  0  0  0  0  0
   12.3960   -1.3710   23.4080 C   0  0  2  0  0  0  0  0  0  0  0  0
   13.5930   -0.4970   23.6170 C   0  0  0  0  0  0  0  0  0  0  0  0
   13.6870   -1.6840   22.7180 C   0  0  0  0  0  0  0  0  0  0  0  0
   10.0380   -1.7910   22.6190 C   0  0  0  0  0  0  0  0  0  0  0  0
    7.5510   -0.4150   21.0310 N   0  0  0  0  0  0  0  0  0  0  0  0
    6.8210    0.1160   19.9520 C   0  0  0  0  0  0  0  0  0  0  0  0
    5.6260    0.8150   20.2020 C   0  0  1  0  0  0  0  0  0  0  0  0
    5.1220    1.0610   21.6010 C   0  0  0  0  0  0  0  0  0  0  0  0
    7.2780    0.0060   18.6380 C   0  0  0  0  0  0  0  0  0  0  0  0
    6.6420    0.5500   17.5960 N   0  0  0  0  0  0  0  0  0  0  0  0
    5.4980    1.1950   17.8400 C   0  0  0  0  0  0  0  0  0  0  0  0
    4.9560    1.3410   19.1040 C   0  0  0  0  0  0  0  0  0  0  0  0
  2  1  1  0
  3  2  1  6
  4  3  1  0
  5  4  1  1
  6  5  1  0
  6  7  1  1
  8  7  1  0
  8  6  1  0
  9  3  1  0
  9  5  1  0
 10  2  1  0
 11 10  1  0
 12 11  1  0
 12 13  1  1
 14 11  1  0
 15 14  1  0
 16 15  1  0
 17 16  1  0
 17 12  1  0
M  END
$$$$
