
     RDKit          3D

 18 19  0  0  0  0  0  0  0  0999 V2000
    8.7210   -1.4390   23.4000 S   0  0  1  0  0  0  0  0  0  0  0  0
   12.8410    0.4190   23.1220 C   0  0  0  0  0  0  0  0  0  0  0  0
    9.9550   -5.3830   25.2360 N   0  0  0  0  0  0  0  0  0  0  0  0
    8.3820   -3.6110   26.7460 C   0  0  0  0  0  0  0  0  0  0  0  0
   11.2730   -1.2950   22.4660 C   0  0  0  0  0  0  0  0  0  0  0  0
    7.7810   -0.3710   23.2440 O   0  0  0  0  0  0  0  0  0  0  0  0
    7.5610   -2.6680   27.5870 C   0  0  0  0  0  0  0  0  0  0  0  0
   11.8970    0.9400   23.9960 C   0  0  0  0  0  0  0  0  0  0  0  0
    8.7250   -4.8720   27.2240 C   0  0  0  0  0  0  0  0  0  0  0  0
   10.3400   -0.7460   23.3320 C   0  0  0  0  0  0  0  0  0  0  0  0
    8.5080   -1.9790   24.9240 N   0  0  0  0  0  0  0  0  0  0  0  0
    8.6700   -2.5550   22.5070 O   0  0  0  0  0  0  0  0  0  0  0  0
    8.8470   -3.2510   25.4700 C   0  0  0  0  0  0  0  0  0  0  0  0
   10.6450    0.3590   24.1110 C   0  0  0  0  0  0  0  0  0  0  0  0
    9.6320   -4.1720   24.7680 C   0  0  0  0  0  0  0  0  0  0  0  0
   12.5180   -0.7010   22.3830 C   0  0  0  0  0  0  0  0  0  0  0  0
    9.4980   -5.7110   26.4470 C   0  0  0  0  0  0  0  0  0  0  0  0
   13.7250   -1.4110   21.3500 Cl  0  0  0  0  0  0  0  0  0  0  0  0
  6  1  2  0
  7  4  1  0
  8  2  2  0
  9  4  1  0
 10  1  1  0
 10  5  1  0
  1 11  1  1
 12  1  2  0
 13 11  1  0
 13  4  2  0
 14 10  2  0
 14  8  1  0
 15 13  1  0
 15  3  2  0
 16  5  2  0
 16  2  1  0
 17  9  2  0
 17  3  1  0
 18 16  1  0
M  END
