
     RDKit          3D

 17 18  0  0  0  0  0  0  0  0999 V2000
    5.3850    1.3130   17.9440 C   0  0  0  0  0  0  0  0  0  0  0  0
    9.1390   -1.0430   22.3880 N   0  0  0  0  0  0  0  0  0  0  0  0
    6.4670    0.5950   17.6120 N   0  0  0  0  0  0  0  0  0  0  0  0
   13.0100    0.0220   23.4850 C   0  0  0  0  0  0  0  0  0  0  0  0
   11.5070   -1.3460   22.1810 C   0  0  0  0  0  0  0  0  0  0  0  0
   12.7750   -0.8860   22.4730 C   0  0  0  0  0  0  0  0  0  0  0  0
    4.8640    1.3570   19.2230 C   0  0  0  0  0  0  0  0  0  0  0  0
   11.9420    0.4400   24.2670 C   0  0  0  0  0  0  0  0  0  0  0  0
    7.4090   -0.7340   20.9160 N   0  0  0  0  0  0  0  0  0  0  0  0
    6.6340   -0.1050   19.9090 C   0  0  0  0  0  0  0  0  0  0  0  0
    9.1490    0.7400   20.9650 O   0  0  0  0  0  0  0  0  0  0  0  0
    8.6070   -0.2730   21.3910 C   0  0  0  0  0  0  0  0  0  0  0  0
    5.4960    0.6300   20.2190 C   0  0  0  0  0  0  0  0  0  0  0  0
   10.4340   -0.8620   22.9230 C   0  0  0  0  0  0  0  0  0  0  0  0
    7.0680   -0.1000   18.5840 C   0  0  0  0  0  0  0  0  0  0  0  0
   10.6570   -0.0070   23.9960 C   0  0  0  0  0  0  0  0  0  0  0  0
   14.1170   -1.4820   21.5400 Cl  0  0  0  0  0  0  0  0  0  0  0  0
  3  1  2  0
  6  5  1  0
  6  4  2  0
  7  1  1  0
  8  4  1  0
 10  9  1  0
 12 11  2  0
 12  9  1  0
 12  2  1  0
 13  7  2  0
 13 10  1  0
 14  2  1  0
 14  5  2  0
 15 10  2  0
 15  3  1  0
 16 14  1  0
 16  8  2  0
 17  6  1  0
M  END
