
     RDKit          3D

 18 19  0  0  0  0  0  0  0  0999 V2000
    6.4070    0.5340   17.4750 N   0  0  0  0  0  0  0  0  0  0  0  0
    8.4580    0.0760   21.3550 C   0  0  0  0  0  0  0  0  0  0  0  0
    8.8590    1.0940   20.7970 O   0  0  0  0  0  0  0  0  0  0  0  0
    7.1110   -0.5390   21.0280 C   0  0  0  0  0  0  0  0  0  0  0  0
    9.1670   -0.5860   22.2880 N   0  0  0  0  0  0  0  0  0  0  0  0
    6.4580    0.1440   19.8480 C   0  0  0  0  0  0  0  0  0  0  0  0
   12.3070    0.9020   23.6280 N   0  0  0  0  0  0  0  0  0  0  0  0
    5.3720    0.9920   20.0040 C   0  0  0  0  0  0  0  0  0  0  0  0
   14.4880   -2.0630   20.5180 N   0  0  0  0  0  0  0  0  0  0  0  0
    4.8120    1.6110   18.9010 C   0  0  0  0  0  0  0  0  0  0  0  0
    5.3600    1.3490   17.6590 C   0  0  0  0  0  0  0  0  0  0  0  0
    6.9320   -0.0480   18.5600 C   0  0  0  0  0  0  0  0  0  0  0  0
   10.5220   -0.3740   22.6170 C   0  0  2  0  0  0  0  0  0  0  0  0
   11.0030    0.6090   23.4860 C   0  0  0  0  0  0  0  0  0  0  0  0
   13.1810    0.2020   22.8950 C   0  0  0  0  0  0  0  0  0  0  0  0
   12.8050   -0.8190   22.0240 C   0  0  2  0  0  0  0  0  0  0  0  0
   13.7620   -1.5030   21.1960 C   0  0  0  0  0  0  0  0  0  0  0  0
   11.4510   -1.1160   21.9050 C   0  0  0  0  0  0  0  0  0  0  0  0
  3  2  1  0
  4  2  1  0
  5  2  1  0
  6  4  1  0
  8  6  1  0
 10  8  1  0
 11 10  1  0
 11  1  1  0
 12  6  1  0
 12  1  1  0
 13  5  1  6
 14 13  1  0
 14  7  1  0
 15  7  1  0
 16 15  1  0
 17  9  1  0
 16 17  1  6
 18 13  1  0
 18 16  1  0
M  END
$$$$
