
     RDKit          3D

 25 27  0  0  0  0  0  0  0  0999 V2000
    7.2510   -3.7980   21.2620 N   0  0  0  0  0  0  0  0  0  0  0  0
    9.5070   -3.9920   26.0330 N   0  0  0  0  0  0  0  0  0  0  0  0
    6.7390   -3.7160   20.0080 C   0  0  0  0  0  0  0  0  0  0  0  0
    7.9390   -2.7080   21.9720 C   0  0  0  0  0  0  0  0  0  0  0  0
   13.2380   -1.9710   24.3440 C   0  0  0  0  0  0  0  0  0  0  0  0
    5.9220   -4.5330   19.6160 O   0  0  0  0  0  0  0  0  0  0  0  0
   12.5010   -3.1530   26.7690 C   0  0  0  0  0  0  0  0  0  0  0  0
    7.1680   -5.0700   21.9970 C   0  0  0  0  0  0  0  0  0  0  0  0
   10.0800   -2.8340   26.3750 C   0  0  0  0  0  0  0  0  0  0  0  0
   11.8580   -2.0560   24.6960 C   0  0  0  0  0  0  0  0  0  0  0  0
    8.1520   -4.3480   26.4340 C   0  0  0  0  0  0  0  0  0  0  0  0
    7.1040   -3.7330   25.5110 C   0  0  0  0  0  0  0  0  0  0  0  0
   12.6350   -0.9940   22.2180 C   0  0  0  0  0  0  0  0  0  0  0  0
   14.2050   -2.4890   25.2340 C   0  0  0  0  0  0  0  0  0  0  0  0
    7.3850   -2.5640   23.3850 C   0  0  0  0  0  0  0  0  0  0  0  0
   13.8340   -3.0670   26.4080 C   0  0  0  0  0  0  0  0  0  0  0  0
   13.5940   -1.4210   23.0900 C   0  0  0  0  0  0  0  0  0  0  0  0
   11.2950   -1.0730   22.5500 C   0  0  0  0  0  0  0  0  0  0  0  0
    7.2450   -2.6380   19.1000 C   0  0  0  0  0  0  0  0  0  0  0  0
    7.4590   -3.8530   24.0910 N   0  0  0  0  0  0  0  0  0  0  0  0
    9.4910   -1.9660   27.0150 O   0  0  0  0  0  0  0  0  0  0  0  0
   11.5100   -2.6680   25.9450 C   0  0  0  0  0  0  0  0  0  0  0  0
    6.6240   -4.8350   23.3940 C   0  0  0  0  0  0  0  0  0  0  0  0
   10.9050   -1.5780   23.7580 C   0  0  0  0  0  0  0  0  0  0  0  0
    8.7030   -3.4590   18.4900 S   0  0  0  0  0  0  0  0  0  0  0  0
  3  1  1  0
  4  1  1  0
  6  3  2  0
  8  1  1  0
  9  2  1  0
 10  5  1  0
 11  2  1  0
 12 11  1  0
 14  5  2  0
 15  4  1  0
 16 14  1  0
 16  7  2  0
 17 13  2  0
 17  5  1  0
 18 13  1  0
 19  3  1  0
 20 15  1  0
 20 12  1  0
 21  9  2  0
 22  9  1  0
 22 10  2  0
 22  7  1  0
 23 20  1  0
 23  8  1  0
 24 18  2  0
 24 10  1  0
 19 25  1  0
M  END
