
     RDKit          3D

 17 18  0  0  0  0  0  0  0  0999 V2000
    9.3660    0.5690   20.9040 O   0  0  0  0  0  0  0  0  0  0  0  0
    8.6310   -0.1830   21.5390 C   0  0  0  0  0  0  0  0  0  0  0  0
    7.3500   -0.4510   21.2070 N   0  0  0  0  0  0  0  0  0  0  0  0
    6.6790    0.0880   20.0790 C   0  0  0  0  0  0  0  0  0  0  0  0
    7.2310   -0.0190   18.7980 C   0  0  0  0  0  0  0  0  0  0  0  0
    6.6570    0.4970   17.7060 N   0  0  0  0  0  0  0  0  0  0  0  0
    5.4880    1.1360   17.8730 C   0  0  0  0  0  0  0  0  0  0  0  0
    4.8650    1.2910   19.0990 C   0  0  0  0  0  0  0  0  0  0  0  0
    5.4600    0.7730   20.2410 C   0  0  0  0  0  0  0  0  0  0  0  0
    4.8280    0.9800   21.5970 C   0  0  0  0  0  0  0  0  0  0  0  0
    9.1000   -0.8230   22.8320 C   0  0  0  0  0  0  0  0  0  0  0  0
   10.5270   -0.5860   23.0350 N   0  0  0  0  0  0  0  0  0  0  0  0
   10.8990   -0.7280   24.4550 C   0  0  0  0  0  0  0  0  0  0  0  0
   12.3710   -0.4300   24.6760 C   0  0  0  0  0  0  0  0  0  0  0  0
   13.2450   -1.3030   23.7990 C   0  0  0  0  0  0  0  0  0  0  0  0
   12.7980   -1.2330   22.3440 C   0  0  0  0  0  0  0  0  0  0  0  0
   11.3200   -1.5200   22.2180 C   0  0  0  0  0  0  0  0  0  0  0  0
  2  1  2  0
  3  2  1  0
  4  3  1  0
  5  4  2  0
  6  5  1  0
  7  6  2  0
  8  7  1  0
  9  8  2  0
  9  4  1  0
 10  9  1  0
 11  2  1  0
 12 11  1  0
 13 12  1  0
 14 13  1  0
 15 14  1  0
 16 15  1  0
 17 12  1  0
 17 16  1  0
M  END
