
     RDKit          3D

 29 30  0  0  0  0  0  0  0  0999 V2000
    6.9300    4.1460   22.0220 C   0  0  0  0  0  0  0  0  0  0  0  0
    6.3090    5.1860   21.3150 C   0  0  0  0  0  0  0  0  0  0  0  0
    4.9190    5.2830   21.3100 C   0  0  0  0  0  0  0  0  0  0  0  0
    4.1710    4.3490   22.0060 C   0  0  0  0  0  0  0  0  0  0  0  0
    4.7930    3.3060   22.7130 C   0  0  0  0  0  0  0  0  0  0  0  0
    6.1830    3.2080   22.7180 C   0  0  0  0  0  0  0  0  0  0  0  0
    8.4760    4.0540   22.0220 C   0  0  0  0  0  0  0  0  0  0  0  0
    8.8690    2.9990   22.8540 O   0  0  0  0  0  0  0  0  0  0  0  0
    9.2880    1.8960   22.0910 C   0  0  0  0  0  0  0  0  0  0  0  0
    9.1550    1.8980   20.9150 O   0  0  0  0  0  0  0  0  0  0  0  0
    9.8850    0.7570   22.7700 N   0  0  0  0  0  0  0  0  0  0  0  0
    9.9740   -0.5110   22.0650 C   0  0  1  0  0  0  0  0  0  0  0  0
   10.6020   -1.5300   22.9890 C   0  0  0  0  0  0  0  0  0  0  0  0
   11.9900   -1.0790   23.4420 C   0  0  1  0  0  0  0  0  0  0  0  0
   12.6640   -2.1470   24.3070 C   0  0  0  0  0  0  0  0  0  0  0  0
   12.8910   -0.6880   22.1980 C   0  0  0  0  0  0  0  0  0  0  0  0
    8.5750   -1.0020   21.6640 C   0  0  0  0  0  0  0  0  0  0  0  0
    7.6410   -0.8880   22.4020 O   0  0  0  0  0  0  0  0  0  0  0  0
    8.4270   -1.6250   20.3370 N   0  0  0  0  0  0  0  0  0  0  0  0
    7.1330   -2.1260   19.8860 C   0  0  2  0  0  0  0  0  0  0  0  0
    7.2700   -3.5930   19.5210 C   0  0  0  0  0  0  0  0  0  0  0  0
    6.2780   -4.1860   19.2610 O   0  0  0  0  0  0  0  0  0  0  0  0
    6.6900   -1.3870   18.6160 C   0  0  0  0  0  0  0  0  0  0  0  0
    6.2060    0.1280   18.8210 C   0  0  2  0  0  0  0  0  0  0  0  0
    5.0990    0.2400   19.9170 C   0  0  0  0  0  0  0  0  0  0  0  0
    4.2330    1.4680   19.4400 C   0  0  0  0  0  0  0  0  0  0  0  0
    4.4510    1.6050   18.1260 N   0  0  0  0  0  0  0  0  0  0  0  0
    5.5520    0.4850   17.6980 C   0  0  1  0  0  0  0  0  0  0  0  0
    6.4050    0.9910   16.7310 O   0  0  0  0  0  0  0  0  0  0  0  0
  2  1  1  0
  3  2  1  0
  4  3  1  0
  5  4  1  0
  6  5  1  0
  6  1  1  0
  7  1  1  0
  8  7  1  0
  9  8  1  0
 10  9  1  0
 11  9  1  0
 12 11  1  0
 12 13  1  1
 14 13  1  0
 14 15  1  6
 16 14  1  0
 17 12  1  0
 18 17  1  0
 19 17  1  0
 20 19  1  0
 20 21  1  6
 22 21  1  0
 23 20  1  0
 24 23  1  6
 25 24  1  0
 26 25  1  0
 27 26  1  0
 28 27  1  0
 28 24  1  0
 28 29  1  6
M  END
$$$$
