
     RDKit          3D

 24 27  0  0  0  0  0  0  0  0999 V2000
    9.5210    1.2370   21.2940 O   0  0  0  0  0  0  0  0  0  0  0  0
    8.9320    0.2400   21.7070 C   0  0  0  0  0  0  0  0  0  0  0  0
    9.3530   -0.4930   22.9820 C   0  0  2  0  0  0  0  0  0  0  0  0
    8.6710    0.1800   24.1820 C   0  0  0  0  0  0  0  0  0  0  0  0
    9.4460    1.4020   24.6010 C   0  0  0  0  0  0  0  0  0  0  0  0
   10.7930    1.0520   24.9790 O   0  0  0  0  0  0  0  0  0  0  0  0
   10.8670   -0.4260   23.0520 C   0  0  0  0  0  0  0  0  0  0  0  0
   11.4900    0.3770   24.0090 C   0  0  0  0  0  0  0  0  0  0  0  0
   12.8650    0.5450   24.0280 C   0  0  0  0  0  0  0  0  0  0  0  0
   13.6420   -0.0920   23.0780 C   0  0  0  0  0  0  0  0  0  0  0  0
   11.6720   -1.0980   22.1300 C   0  0  0  0  0  0  0  0  0  0  0  0
   13.0390   -0.9160   22.1570 C   0  0  0  0  0  0  0  0  0  0  0  0
   14.0260   -1.7670   21.0010 Cl  0  0  0  0  0  0  0  0  0  0  0  0
    7.9020   -0.3090   21.0590 N   0  0  0  0  0  0  0  0  0  0  0  0
    6.8890    0.1030   20.1860 C   0  0  0  0  0  0  0  0  0  0  0  0
    5.7560    0.9000   20.4110 C   0  0  0  0  0  0  0  0  0  0  0  0
    5.3070    1.1970   21.8200 C   0  0  0  0  0  0  0  0  0  0  0  0
    4.2790    2.2400   21.8940 N   0  0  0  0  0  0  0  0  0  0  0  0
    3.2300    2.0490   20.8770 C   0  0  0  0  0  0  0  0  0  0  0  0
    3.7860    2.1990   19.4800 C   0  0  0  0  0  0  0  0  0  0  0  0
    5.0450    1.3830   19.3020 C   0  0  0  0  0  0  0  0  0  0  0  0
    5.5330    1.0910   18.0440 C   0  0  0  0  0  0  0  0  0  0  0  0
    6.6320    0.3700   17.8110 N   0  0  0  0  0  0  0  0  0  0  0  0
    7.2770   -0.1230   18.8670 C   0  0  0  0  0  0  0  0  0  0  0  0
  2  1  2  0
  3  2  1  6
  4  3  1  0
  5  4  1  0
  6  5  1  0
  7  3  1  0
  8  7  2  0
  8  6  1  0
  9  8  1  0
 10  9  2  0
 11  7  1  0
 12 11  2  0
 12 10  1  0
 13 12  1  0
 14  2  1  0
 15 14  1  0
 16 15  1  0
 17 16  1  0
 18 17  1  0
 19 18  1  0
 20 19  1  0
 21 20  1  0
 21 16  2  0
 22 21  1  0
 23 22  2  0
 24 23  1  0
 24 15  2  0
M  END
