
     RDKit          3D

 23 25  0  0  0  0  0  0  0  0999 V2000
    8.7210    1.4490   21.2770 O   0  0  0  0  0  0  0  0  0  0  0  0
    8.3930    0.2670   21.3360 C   0  0  2  0  0  0  0  0  0  0  0  0
    8.8970   -0.6460   22.4360 C   0  0  0  0  0  0  0  0  0  0  0  0
   10.3750   -0.4580   22.6920 C   0  0  2  0  0  0  0  0  0  0  0  0
   10.8280    0.5080   23.5820 C   0  0  0  0  0  0  0  0  0  0  0  0
   12.1820    0.7730   23.7160 C   0  0  0  0  0  0  0  0  0  0  0  0
   13.1080    0.0630   22.9690 C   0  0  0  0  0  0  0  0  0  0  0  0
   11.3080   -1.1930   21.9680 C   0  0  0  0  0  0  0  0  0  0  0  0
   12.6550   -0.9270   22.1210 C   0  0  0  0  0  0  0  0  0  0  0  0
   13.8100   -1.8990   21.2510 Cl  0  0  0  0  0  0  0  0  0  0  0  0
    7.6470   -0.3440   20.3950 N   0  0  0  0  0  0  0  0  0  0  0  0
    6.6350    0.0710   19.4980 C   0  0  1  0  0  0  0  0  0  0  0  0
    5.6510    1.0210   19.8310 C   0  0  1  0  0  0  0  0  0  0  0  0
    4.9940    1.6800   18.7930 C   0  0  0  0  0  0  0  0  0  0  0  0
    5.3550    1.3860   17.4940 C   0  0  0  0  0  0  0  0  0  0  0  0
    6.2810    0.4830   17.1630 N   0  0  0  0  0  0  0  0  0  0  0  0
    6.8820   -0.1770   18.1550 C   0  0  0  0  0  0  0  0  0  0  0  0
    5.2190    1.3300   21.2220 C   0  0  1  0  0  0  0  0  0  0  0  0
    4.9520    2.6480   21.6000 C   0  0  0  0  0  0  0  0  0  0  0  0
    4.3740    2.9290   22.8290 C   0  0  0  0  0  0  0  0  0  0  0  0
    4.0680    1.9040   23.7030 C   0  0  0  0  0  0  0  0  0  0  0  0
    4.3440    0.5960   23.3520 C   0  0  0  0  0  0  0  0  0  0  0  0
    4.9210    0.3090   22.1250 C   0  0  0  0  0  0  0  0  0  0  0  0
  2  1  1  6
  3  2  1  0
  4  3  1  6
  5  4  1  0
  6  5  1  0
  7  6  1  0
  8  4  1  0
  9  8  1  0
  9  7  1  0
 10  9  1  0
 11  2  1  0
 12 11  1  6
 13 12  1  0
 13 14  1  6
 15 14  1  0
 16 15  1  0
 17 16  1  0
 17 12  1  0
 18 13  1  0
 18 19  1  6
 20 19  1  0
 21 20  1  0
 22 21  1  0
 23 18  1  0
 23 22  1  0
M  END
$$$$
