
     RDKit          3D

 18 19  0  0  0  0  0  0  0  0999 V2000
    6.9620   -4.3460   21.3670 N   0  0  0  0  0  0  0  0  0  0  0  0
    7.0480   -3.0970   19.2470 C   0  0  0  0  0  0  0  0  0  0  0  0
    5.6730   -4.9800   19.6210 O   0  0  0  0  0  0  0  0  0  0  0  0
    6.5050   -4.2170   20.0980 C   0  0  0  0  0  0  0  0  0  0  0  0
    7.2570   -4.8750   29.1580 C   0  0  0  0  0  0  0  0  0  0  0  0
    5.8180   -4.4810   28.8760 C   0  0  0  0  0  0  0  0  0  0  0  0
    5.7250   -3.3190   27.9010 C   0  0  0  0  0  0  0  0  0  0  0  0
    7.8860   -3.4460   22.0710 C   0  0  0  0  0  0  0  0  0  0  0  0
    7.2040   -2.8490   23.2860 C   0  0  0  0  0  0  0  0  0  0  0  0
    6.6680   -3.9560   24.2020 C   0  0  2  0  0  0  0  0  0  0  0  0
    5.7550   -4.8760   23.4090 C   0  0  0  0  0  0  0  0  0  0  0  0
    6.4920   -5.4430   22.2200 C   0  0  0  0  0  0  0  0  0  0  0  0
    5.9620   -3.4090   25.4230 C   0  0  0  0  0  0  0  0  0  0  0  0
    7.8990   -3.9200   26.9640 C   0  0  0  0  0  0  0  0  0  0  0  0
    7.9770   -5.1420   27.8510 C   0  0  0  0  0  0  0  0  0  0  0  0
    6.5040   -3.5620   26.6780 N   0  0  0  0  0  0  0  0  0  0  0  0
    4.8800   -2.8430   25.2890 O   0  0  0  0  0  0  0  0  0  0  0  0
    8.6430   -3.5410   18.4980 S   0  0  0  0  0  0  0  0  0  0  0  0
  4  3  1  0
  4  2  1  0
  4  1  1  0
  6  5  1  0
  7  6  1  0
  8  1  1  0
  9  8  1  0
 10  9  1  0
 11 10  1  0
 12  1  1  0
 12 11  1  0
 10 13  1  1
 15 14  1  0
 15  5  1  0
 16 14  1  0
 16 13  1  0
 16  7  1  0
 17 13  1  0
  2 18  1  0
M  END
$$$$
