
     RDKit          3D

 18 19  0  0  0  0  0  0  0  0999 V2000
    6.8960   -4.3070   21.3570 N   0  0  0  0  0  0  0  0  0  0  0  0
    6.9800   -3.0630   19.2340 C   0  0  0  0  0  0  0  0  0  0  0  0
    5.6090   -4.9480   19.6130 O   0  0  0  0  0  0  0  0  0  0  0  0
    6.4400   -4.1820   20.0870 C   0  0  0  0  0  0  0  0  0  0  0  0
    6.4340   -3.5100   26.6660 N   0  0  0  0  0  0  0  0  0  0  0  0
    4.8100   -2.7980   25.2750 O   0  0  0  0  0  0  0  0  0  0  0  0
    7.8180   -3.4030   22.0600 C   0  0  0  0  0  0  0  0  0  0  0  0
    7.1340   -2.8040   23.2730 C   0  0  0  0  0  0  0  0  0  0  0  0
    6.6000   -3.9100   24.1910 C   0  0  0  0  0  0  0  0  0  0  0  0
    5.6890   -4.8350   23.4000 C   0  0  0  0  0  0  0  0  0  0  0  0
    6.4280   -5.4030   22.2130 C   0  0  0  0  0  0  0  0  0  0  0  0
    5.8930   -3.3620   25.4110 C   0  0  0  0  0  0  0  0  0  0  0  0
    7.8300   -3.8650   26.9540 C   0  0  0  0  0  0  0  0  0  0  0  0
    7.9100   -5.0840   27.8440 C   0  0  0  0  0  0  0  0  0  0  0  0
    7.1890   -4.8160   29.1500 C   0  0  0  0  0  0  0  0  0  0  0  0
    5.7490   -4.4260   28.8660 C   0  0  0  0  0  0  0  0  0  0  0  0
    5.6540   -3.2660   27.8880 C   0  0  0  0  0  0  0  0  0  0  0  0
    8.5760   -3.5050   18.4870 S   0  0  0  0  0  0  0  0  0  0  0  0
  4  3  2  0
  4  2  1  0
  4  1  1  0
  7  1  1  0
  8  7  1  0
  9  8  1  0
 10  9  1  0
 11  1  1  0
 11 10  1  0
 12  6  2  0
  9 12  1  0
 12  5  1  0
 13  5  1  0
 14 13  1  0
 15 14  1  0
 16 15  1  0
 17  5  1  0
 17 16  1  0
  2 18  1  0
M  END
