
     RDKit          3D

  7  7  0  0  0  0  0  0  0  0999 V2000
    3.7850    2.0990   19.5620 N   0  0  0  0  0  0  0  0  0  0  0  0
    4.7510    1.2610   19.1550 C   0  0  0  0  0  0  0  0  0  0  0  0
    5.1910    0.1790   19.9590 C   0  0  0  0  0  0  0  0  0  0  0  0
    6.1160   -0.6970   19.5380 N   0  0  0  0  0  0  0  0  0  0  0  0
    6.6310   -0.4740   18.2830 C   0  0  0  0  0  0  0  0  0  0  0  0
    6.2980    0.5280   17.4470 N   0  0  0  0  0  0  0  0  0  0  0  0
    5.3620    1.3850   17.8780 C   0  0  0  0  0  0  0  0  0  0  0  0
  2  1  1  0
  3  2  1  0
  4  3  1  0
  5  4  1  0
  6  5  1  0
  7  2  1  0
  7  6  1  0
M  END
$$$$
