
     RDKit          3D

 26 28  0  0  0  0  0  0  0  0999 V2000
    6.7210   -2.0720   21.6680 N   0  0  0  0  0  0  0  0  0  0  0  0
   10.2850    2.3910   24.5020 C   0  0  0  0  0  0  0  0  0  0  0  0
   10.1290    1.1670   23.7870 O   0  0  0  0  0  0  0  0  0  0  0  0
   11.2560    0.5280   23.3440 C   0  0  0  0  0  0  0  0  0  0  0  0
    5.1020    1.6340   18.4790 N   0  0  0  0  0  0  0  0  0  0  0  0
    9.7660   -1.2310   22.8620 O   0  0  0  0  0  0  0  0  0  0  0  0
   12.5320    1.0740   23.3410 C   0  0  0  0  0  0  0  0  0  0  0  0
    5.2540   -2.9420   20.1780 O   0  0  0  0  0  0  0  0  0  0  0  0
   13.5760    0.3610   22.7770 C   0  0  0  0  0  0  0  0  0  0  0  0
    6.6840    1.0740   16.9750 O   0  0  0  0  0  0  0  0  0  0  0  0
   13.3620   -0.8910   22.2350 C   0  0  0  0  0  0  0  0  0  0  0  0
   12.1030   -1.4640   22.2600 C   0  0  0  0  0  0  0  0  0  0  0  0
   11.0460   -0.7590   22.8100 C   0  0  0  0  0  0  0  0  0  0  0  0
    8.9960   -1.1740   21.6550 C   0  0  0  0  0  0  0  0  0  0  0  0
    7.5730   -0.9610   22.0910 C   0  0  0  0  0  0  0  0  0  0  0  0
    6.8950   -3.3290   22.3800 C   0  0  0  0  0  0  0  0  0  0  0  0
    5.8560   -1.9630   20.5910 C   0  0  0  0  0  0  0  0  0  0  0  0
    5.6700   -0.6450   19.9300 C   0  0  1  0  0  0  0  0  0  0  0  0
    6.2850   -0.4040   18.7450 C   0  0  0  0  0  0  0  0  0  0  0  0
    6.0460    0.7730   17.9780 C   0  0  1  0  0  0  0  0  0  0  0  0
    4.4360    1.4550   19.6830 C   0  0  0  0  0  0  0  0  0  0  0  0
    3.4720    2.3710   20.1060 C   0  0  0  0  0  0  0  0  0  0  0  0
    2.8160    2.1700   21.3110 C   0  0  0  0  0  0  0  0  0  0  0  0
    3.1250    1.0870   22.1060 C   0  0  0  0  0  0  0  0  0  0  0  0
    4.0760    0.1690   21.6980 C   0  0  0  0  0  0  0  0  0  0  0  0
    4.7230    0.3270   20.4680 C   0  0  0  0  0  0  0  0  0  0  0  0
  3  2  1  0
  4  3  1  0
  7  4  1  0
  9  7  1  0
 11  9  1  0
 12 11  1  0
 13  6  1  0
 13 12  1  0
 13  4  1  0
 14  6  1  0
 15 14  1  0
 15  1  1  0
 16  1  1  0
 17  8  1  0
 17  1  1  0
 18 17  1  6
 19 18  1  0
 20  5  1  0
 20 19  1  0
 20 10  1  1
 21  5  1  0
 22 21  1  0
 23 22  1  0
 24 23  1  0
 25 24  1  0
 26 25  1  0
 26 21  1  0
 26 18  1  0
M  END
$$$$
