
     RDKit          3D

  9  9  0  0  0  0  0  0  0  0999 V2000
    7.5810   -3.7960   20.4360 C   0  0  0  0  0  0  0  0  0  0  0  0
    7.0410   -3.9720   22.7150 N   0  0  0  0  0  0  0  0  0  0  0  0
    8.5320   -2.2760   22.1260 O   0  0  0  0  0  0  0  0  0  0  0  0
    7.8100   -3.2230   21.8300 C   0  0  0  0  0  0  0  0  0  0  0  0
    5.7600   -5.8990   22.6700 O   0  0  0  0  0  0  0  0  0  0  0  0
    6.3270   -4.9910   22.0760 C   0  0  0  0  0  0  0  0  0  0  0  0
    6.4090   -4.7800   20.5760 C   0  0  0  0  0  0  0  0  0  0  0  0
    6.9920   -3.7260   24.1660 C   0  0  0  0  0  0  0  0  0  0  0  0
    7.6330   -4.8360   25.0030 C   0  0  0  0  0  0  0  0  0  0  0  0
  4  1  1  0
  4  3  2  0
  4  2  1  0
  6  5  2  0
  6  2  1  0
  7  1  1  0
  7  6  1  0
  8  2  1  0
  9  8  1  0
M  END
