
     RDKit          3D

  8  8  0  0  0  0  0  0  0  0999 V2000
   -0.0570    5.9170  -17.5020 N   0  0  0  0  0  0  0  0  0  0  0  0
   -0.4900    6.8800  -18.5410 C   0  0  0  0  0  0  0  0  0  0  0  0
   -1.9400    8.6800  -19.3300 N   0  0  0  0  0  0  0  0  0  0  0  0
   -1.4880    7.9980  -18.2390 C   0  0  0  0  0  0  0  0  0  0  0  0
   -1.9460    8.2810  -16.9510 C   0  0  0  0  0  0  0  0  0  0  0  0
   -2.8640    9.3050  -16.7250 C   0  0  0  0  0  0  0  0  0  0  0  0
   -3.3160   10.0180  -17.8140 C   0  0  0  0  0  0  0  0  0  0  0  0
   -2.8440    9.6670  -19.0640 C   0  0  0  0  0  0  0  0  0  0  0  0
  2  1  1  0
  4  3  2  0
  4  2  1  0
  5  4  1  0
  6  5  2  0
  7  6  1  0
  8  7  2  0
  8  3  1  0
M  END
$$$$
