
     RDKit          3D

 21 23  0  0  0  0  0  0  0  0999 V2000
    6.5000    0.5960   17.4450 N   0  0  0  0  0  0  0  0  0  0  0  0
    9.8920   -0.7160   23.3030 N   0  0  0  0  0  0  0  0  0  0  0  0
    5.5040    0.7540   20.0680 C   0  0  0  0  0  0  0  0  0  0  0  0
   13.1840    0.5030   23.8960 C   0  0  0  0  0  0  0  0  0  0  0  0
    9.6340    0.0290   24.4300 C   0  0  0  0  0  0  0  0  0  0  0  0
    4.9120    1.4530   19.0210 C   0  0  0  0  0  0  0  0  0  0  0  0
    8.4340   -0.4240   21.3620 C   0  0  0  0  0  0  0  0  0  0  0  0
    6.6190   -0.0490   19.7600 C   0  0  0  0  0  0  0  0  0  0  0  0
    7.0730   -0.0890   18.4400 C   0  0  0  0  0  0  0  0  0  0  0  0
   11.8270    0.1930   24.0090 C   0  0  0  0  0  0  0  0  0  0  0  0
   13.3320   -0.8700   21.9670 C   0  0  0  0  0  0  0  0  0  0  0  0
   14.1000   -1.4530   21.0080 F   0  0  0  0  0  0  0  0  0  0  0  0
   10.7710    0.5950   24.8910 C   0  0  0  0  0  0  0  0  0  0  0  0
   13.9400   -0.0140   22.8580 C   0  0  0  0  0  0  0  0  0  0  0  0
   11.9980   -1.2050   22.0130 C   0  0  0  0  0  0  0  0  0  0  0  0
    4.9910    0.9020   21.4780 C   0  0  0  0  0  0  0  0  0  0  0  0
    7.2670   -0.7730   20.7850 N   0  0  0  0  0  0  0  0  0  0  0  0
    9.0770    0.5820   21.0620 O   0  0  0  0  0  0  0  0  0  0  0  0
    8.8850   -1.3620   22.4680 C   0  0  0  0  0  0  0  0  0  0  0  0
    5.4370    1.3500   17.7480 C   0  0  0  0  0  0  0  0  0  0  0  0
   11.2480   -0.6440   23.0390 C   0  0  0  0  0  0  0  0  0  0  0  0
  5  2  1  0
  6  3  1  0
  8  3  2  0
  9  8  1  0
  9  1  2  0
 10  4  2  0
 12 11  1  0
 13  5  2  0
 13 10  1  0
 14 11  2  0
 14  4  1  0
 15 11  1  0
 16  3  1  0
 17  8  1  0
 17  7  1  0
 18  7  2  0
 19  7  1  0
 19  2  1  0
 20  6  2  0
 20  1  1  0
 21  2  1  0
 21 15  2  0
 21 10  1  0
M  END
