
     RDKit          3D

 21 22  0  0  0  0  0  0  0  0999 V2000
    7.5180   -2.5210   23.7560 N   0  0  0  0  0  0  0  0  0  0  0  0
    6.1040   -5.2300   29.1240 C   0  0  0  0  0  0  0  0  0  0  0  0
    8.6780   -1.0900   25.4130 O   0  0  0  0  0  0  0  0  0  0  0  0
    7.1190   -4.8540   28.0730 C   0  0  0  0  0  0  0  0  0  0  0  0
    6.7920   -4.2250   22.2260 C   0  0  0  0  0  0  0  0  0  0  0  0
    6.3640   -3.3430   23.3670 C   0  0  0  0  0  0  0  0  0  0  0  0
    6.7300   -3.5440   19.8660 C   0  0  0  0  0  0  0  0  0  0  0  0
    7.3090   -2.6980   18.7640 C   0  0  0  0  0  0  0  0  0  0  0  0
    8.2640   -5.6070   27.8860 C   0  0  0  0  0  0  0  0  0  0  0  0
    9.1990   -5.2650   26.9230 C   0  0  0  0  0  0  0  0  0  0  0  0
    9.0170   -4.1510   26.1090 C   0  0  0  0  0  0  0  0  0  0  0  0
   10.0700   -3.8400   25.0790 C   0  0  0  0  0  0  0  0  0  0  0  0
    7.8600   -3.3860   26.3050 C   0  0  0  0  0  0  0  0  0  0  0  0
    6.9240   -3.7410   27.2670 C   0  0  0  0  0  0  0  0  0  0  0  0
    7.9380   -1.6270   22.6650 C   0  0  0  0  0  0  0  0  0  0  0  0
    8.3230   -2.4700   21.4740 C   0  0  0  0  0  0  0  0  0  0  0  0
    7.2520   -3.4040   21.1050 N   0  0  0  0  0  0  0  0  0  0  0  0
    6.2430   -1.4800   25.5940 O   0  0  0  0  0  0  0  0  0  0  0  0
    5.8370   -4.3430   19.6110 O   0  0  0  0  0  0  0  0  0  0  0  0
    7.5550   -1.9660   25.2970 S   0  0  2  0  0  0  0  0  0  0  0  0
    8.9140   -3.3730   18.2520 S   0  0  0  0  0  0  0  0  0  0  0  0
  4  2  1  0
  6  5  1  0
  6  1  1  0
  8  7  1  0
  9  4  2  0
 10  9  1  0
 11 10  2  0
 12 11  1  0
 13 11  1  0
 14 13  2  0
 14  4  1  0
 15  1  1  0
 16 15  1  0
 17 16  1  0
 17  7  1  0
 17  5  1  0
 19  7  2  0
 20 18  2  0
 20 13  1  1
 20  3  2  0
 20  1  1  0
  8 21  1  0
M  END
