
     RDKit          3D

 17 19  0  0  0  0  0  0  0  0999 V2000
    6.4320    0.4560   17.5260 N   0  0  0  0  0  0  0  0  0  0  0  0
    4.9990    0.9800   21.5640 C   0  0  0  0  0  0  0  0  0  0  0  0
    9.1450    0.9060   20.9620 O   0  0  0  0  0  0  0  0  0  0  0  0
    5.4990    0.7730   20.1560 C   0  0  0  0  0  0  0  0  0  0  0  0
    7.3940   -0.5350   20.9460 N   0  0  0  0  0  0  0  0  0  0  0  0
    4.8350    1.3430   19.0770 C   0  0  0  0  0  0  0  0  0  0  0  0
    5.3260    1.1590   17.7990 C   0  0  0  0  0  0  0  0  0  0  0  0
    7.0780   -0.1000   18.5560 C   0  0  0  0  0  0  0  0  0  0  0  0
    6.6570    0.0270   19.8800 C   0  0  0  0  0  0  0  0  0  0  0  0
    8.5370   -0.0390   21.4520 C   0  0  0  0  0  0  0  0  0  0  0  0
    8.9880   -0.6960   22.7320 C   0  0  0  0  0  0  0  0  0  0  0  0
   10.3380   -1.3960   22.6290 C   0  0  2  0  0  0  0  0  0  0  0  0
   10.9610   -1.8220   23.9780 C   0  0  0  0  0  0  0  0  0  0  0  0
   12.3140   -1.2240   23.5530 C   0  0  2  0  0  0  0  0  0  0  0  0
   13.6700   -1.8500   23.5960 C   0  0  0  0  0  0  0  0  0  0  0  0
   13.3480   -0.6710   24.4770 C   0  0  0  0  0  0  0  0  0  0  0  0
   11.6010   -0.5410   22.3720 C   0  0  0  0  0  0  0  0  0  0  0  0
  4  2  1  0
  6  4  2  0
  7  6  1  0
  7  1  2  0
  8  1  1  0
  9  8  2  0
  9  5  1  0
  9  4  1  0
 10  5  1  0
 10  3  2  0
 11 10  1  0
 12 11  1  1
 13 12  1  0
 14 13  1  1
 15 14  1  0
 16 15  1  0
 16 14  1  0
 17 12  1  0
 17 14  1  0
M  END
