
     RDKit          3D

 17 17  0  0  0  0  0  0  0  0999 V2000
    4.7330    1.7220   18.4610 N   0  0  0  0  0  0  0  0  0  0  0  0
    5.7260    0.8660   18.2690 C   0  0  0  0  0  0  0  0  0  0  0  0
    6.5190    0.9560   17.3280 O   0  0  0  0  0  0  0  0  0  0  0  0
    5.8840   -0.2030   19.3190 C   0  0  0  0  0  0  0  0  0  0  0  0
    7.6340   -1.6770   20.2870 N   0  0  0  0  0  0  0  0  0  0  0  0
    9.8260    1.0050   21.4480 O   0  0  0  0  0  0  0  0  0  0  0  0
    7.3330   -0.3560   19.7380 C   0  0  0  0  0  0  0  0  0  0  0  0
    9.8930    0.7580   23.8970 O   0  0  0  0  0  0  0  0  0  0  0  0
    8.2040   -1.7640   21.6430 C   0  0  1  0  0  0  0  0  0  0  0  0
    7.8230   -2.6480   18.2900 O   0  0  0  0  0  0  0  0  0  0  0  0
    9.6940   -2.0400   21.4170 C   0  0  0  0  0  0  0  0  0  0  0  0
   10.4620   -1.2460   22.4640 C   0  0  0  0  0  0  0  0  0  0  0  0
    8.0080   -0.5630   22.5830 C   0  0  0  0  0  0  0  0  0  0  0  0
    7.4830   -2.7350   19.4570 C   0  0  0  0  0  0  0  0  0  0  0  0
    6.8390   -3.9950   20.0070 C   0  0  0  0  0  0  0  0  0  0  0  0
    9.6360    0.1750   22.6070 S   0  0  0  0  0  0  0  0  0  0  0  0
    7.5210   -5.5970   19.4630 S   0  0  0  0  0  0  0  0  0  0  0  0
  2  1  1  0
  3  2  2  0
  4  2  1  0
  7  5  1  0
  7  4  1  0
  9  5  1  6
 11  9  1  0
 12 11  1  0
 13  9  1  0
 14 10  2  0
 14  5  1  0
 15 14  1  0
 16  6  2  0
 16 13  1  0
 16 12  1  0
 16  8  2  0
 15 17  1  0
M  END
