
     RDKit          3D

 19 20  0  0  0  0  0  0  0  0999 V2000
    6.0860    0.5750   17.5800 N   0  0  0  0  0  0  0  0  0  0  0  0
    4.7890    1.3730   21.6030 C   0  0  0  0  0  0  0  0  0  0  0  0
    8.7840    0.8930   21.0600 O   0  0  0  0  0  0  0  0  0  0  0  0
   13.5610   -1.8760   21.3220 Cl  0  0  0  0  0  0  0  0  0  0  0  0
    5.2420    1.0730   20.1970 C   0  0  0  0  0  0  0  0  0  0  0  0
    6.9530   -0.4620   21.0120 N   0  0  0  0  0  0  0  0  0  0  0  0
    4.6350    1.6920   19.1160 C   0  0  0  0  0  0  0  0  0  0  0  0
    5.0810    1.4210   17.8440 C   0  0  0  0  0  0  0  0  0  0  0  0
    6.6930   -0.0490   18.5960 C   0  0  0  0  0  0  0  0  0  0  0  0
    7.8110   -0.9810   18.2370 C   0  0  0  0  0  0  0  0  0  0  0  0
    6.2870    0.1830   19.9250 C   0  0  0  0  0  0  0  0  0  0  0  0
    8.1420   -0.0520   21.5150 C   0  0  0  0  0  0  0  0  0  0  0  0
    8.6410   -0.8620   22.6970 C   0  0  0  0  0  0  0  0  0  0  0  0
   10.1180   -0.6500   22.9380 C   0  0  2  0  0  0  0  0  0  0  0  0
   10.5620    0.2640   23.8830 C   0  0  0  0  0  0  0  0  0  0  0  0
   11.9100    0.5620   24.0060 C   0  0  0  0  0  0  0  0  0  0  0  0
   12.8400   -0.0610   23.1870 C   0  0  0  0  0  0  0  0  0  0  0  0
   12.3970   -1.0020   22.2830 C   0  0  0  0  0  0  0  0  0  0  0  0
   11.0560   -1.3030   22.1440 C   0  0  0  0  0  0  0  0  0  0  0  0
  5  2  1  0
  7  5  1  0
  8  7  1  0
  8  1  1  0
  9  1  1  0
 10  9  1  0
 11  5  1  0
 11  9  1  0
 11  6  1  0
 12  6  1  0
 12  3  1  0
 13 12  1  0
 14 13  1  6
 15 14  1  0
 16 15  1  0
 17 16  1  0
 18  4  1  0
 18 17  1  0
 19 14  1  0
 19 18  1  0
M  END
$$$$
