
     RDKit          3D

 29 30  0  0  0  0  0  0  0  0999 V2000
    9.1750    5.0930   22.3300 C   0  0  0  0  0  0  0  0  0  0  0  0
    9.2830    6.4950   22.3620 C   0  0  0  0  0  0  0  0  0  0  0  0
    8.1480    7.2820   22.2010 C   0  0  0  0  0  0  0  0  0  0  0  0
    6.9170    6.6570   21.9910 C   0  0  0  0  0  0  0  0  0  0  0  0
    6.8030    5.2620   21.9460 C   0  0  0  0  0  0  0  0  0  0  0  0
    7.9370    4.4780   22.1220 C   0  0  0  0  0  0  0  0  0  0  0  0
   10.4310    4.2110   22.5150 C   0  0  0  0  0  0  0  0  0  0  0  0
   10.1450    3.1620   23.4130 O   0  0  0  0  0  0  0  0  0  0  0  0
    9.8250    1.9400   22.7900 C   0  0  0  0  0  0  0  0  0  0  0  0
    9.3500    1.8730   21.7060 O   0  0  0  0  0  0  0  0  0  0  0  0
   10.0980    0.6950   23.4770 N   0  0  0  0  0  0  0  0  0  0  0  0
   10.3050   -0.4450   22.6310 C   0  0  1  0  0  0  0  0  0  0  0  0
   10.9810   -1.5950   23.3400 C   0  0  0  0  0  0  0  0  0  0  0  0
   12.4390   -1.2250   23.6050 C   0  0  2  0  0  0  0  0  0  0  0  0
   13.2320   -0.7050   22.4060 C   0  0  0  0  0  0  0  0  0  0  0  0
   13.1970   -2.4810   24.0780 C   0  0  0  0  0  0  0  0  0  0  0  0
    8.9100   -0.8870   22.1160 C   0  0  0  0  0  0  0  0  0  0  0  0
    7.8480   -0.7980   22.6910 O   0  0  0  0  0  0  0  0  0  0  0  0
    8.8840   -1.4950   20.7940 N   0  0  0  0  0  0  0  0  0  0  0  0
    7.6070   -1.9570   20.2450 C   0  0  2  0  0  0  0  0  0  0  0  0
    7.8510   -3.4330   20.0450 C   0  0  0  0  0  0  0  0  0  0  0  0
    6.7250   -4.1220   19.7740 O   0  0  0  0  0  0  0  0  0  0  0  0
    7.1890   -1.1360   19.0460 C   0  0  0  0  0  0  0  0  0  0  0  0
    6.7750    0.3390   19.4330 C   0  0  2  0  0  0  0  0  0  0  0  0
    5.5920    0.3380   20.4450 C   0  0  0  0  0  0  0  0  0  0  0  0
    4.5560    1.2400   19.9150 C   0  0  0  0  0  0  0  0  0  0  0  0
    4.9910    1.6840   18.5280 N   0  0  0  0  0  0  0  0  0  0  0  0
    6.3560    1.1030   18.2660 C   0  0  1  0  0  0  0  0  0  0  0  0
    6.9930    1.3180   17.3020 O   0  0  0  0  0  0  0  0  0  0  0  0
  2  1  1  0
  3  2  1  0
  4  3  1  0
  5  4  1  0
  6  5  1  0
  6  1  1  0
  7  1  1  0
  8  7  1  0
  9  8  1  0
 10  9  1  0
 11  9  1  0
 12 11  1  0
 12 13  1  1
 14 13  1  0
 14 15  1  6
 16 14  1  0
 17 12  1  0
 18 17  1  0
 19 17  1  0
 20 19  1  0
 20 21  1  6
 22 21  1  0
 23 20  1  0
 24 23  1  6
 25 24  1  0
 26 25  1  0
 27 26  1  0
 28 27  1  0
 28 24  1  0
 28 29  1  1
M  END
$$$$
