
     RDKit          3D

 26 29  0  0  0  0  0  0  0  0999 V2000
    9.3900    1.2970   21.0570 O   0  0  0  0  0  0  0  0  0  0  0  0
    8.9040    0.3560   21.6680 C   0  0  1  0  0  0  0  0  0  0  0  0
    9.5520   -0.1280   22.9940 C   0  0  1  0  0  0  0  0  0  0  0  0
   11.0640   -0.0310   22.9940 C   0  0  1  0  0  0  0  0  0  0  0  0
   11.8290   -0.6310   21.9950 C   0  0  0  0  0  0  0  0  0  0  0  0
   13.2020   -0.4690   22.0020 C   0  0  0  0  0  0  0  0  0  0  0  0
   14.1440   -1.2160   20.7440 Cl  0  0  0  0  0  0  0  0  0  0  0  0
   13.8440    0.2780   22.9650 C   0  0  0  0  0  0  0  0  0  0  0  0
   13.1030    0.8770   23.9640 C   0  0  0  0  0  0  0  0  0  0  0  0
   11.7270    0.7210   23.9760 C   0  0  0  0  0  0  0  0  0  0  0  0
   11.0720    1.3610   24.9990 O   0  0  0  0  0  0  0  0  0  0  0  0
    9.7630    0.8450   25.2960 C   0  0  0  0  0  0  0  0  0  0  0  0
    8.9020    0.7730   24.0520 C   0  0  0  0  0  0  0  0  0  0  0  0
    9.0290   -1.4330   23.2770 O   0  0  0  0  0  0  0  0  0  0  0  0
    9.5520   -2.5340   22.5210 C   0  0  0  0  0  0  0  0  0  0  0  0
    7.7670   -0.2650   21.2870 N   0  0  0  0  0  0  0  0  0  0  0  0
    6.9760    0.0540   20.1600 C   0  0  1  0  0  0  0  0  0  0  0  0
    5.7250    0.7110   20.3760 C   0  0  0  0  0  0  0  0  0  0  0  0
    5.2100    1.0200   21.6620 C   0  0  0  0  0  0  0  0  0  0  0  0
    4.0210    1.6770   21.8010 C   0  0  0  0  0  0  0  0  0  0  0  0
    3.2900    2.0600   20.6850 C   0  0  0  0  0  0  0  0  0  0  0  0
    3.7450    1.7920   19.4260 C   0  0  0  0  0  0  0  0  0  0  0  0
    4.9720    1.1110   19.2340 C   0  0  0  0  0  0  0  0  0  0  0  0
    5.5120    0.8330   17.9550 C   0  0  0  0  0  0  0  0  0  0  0  0
    6.6710    0.2230   17.7560 N   0  0  0  0  0  0  0  0  0  0  0  0
    7.3680   -0.1530   18.8360 C   0  0  0  0  0  0  0  0  0  0  0  0
  2  1  1  1
  3  2  1  0
  4  3  1  0
  4  5  1  6
  6  5  1  0
  7  6  1  0
  8  6  1  0
  9  8  1  0
 10  9  1  0
 10  4  1  0
 11 10  1  0
 12 11  1  0
 13 12  1  0
 13  3  1  0
  3 14  1  1
 15 14  1  0
 16  2  1  0
 17 16  1  6
 18 17  1  0
 19 18  1  0
 20 19  1  0
 21 20  1  0
 22 21  1  0
 23 22  1  0
 23 18  1  0
 24 23  1  0
 25 24  1  0
 26 25  1  0
 26 17  1  0
M  END
$$$$
