
     RDKit          3D

 18 19  0  0  0  0  0  0  0  0999 V2000
   13.9140   -1.8050   21.3570 Cl  0  0  0  0  0  0  0  0  0  0  0  0
   12.6810   -1.0300   22.3190 C   0  0  0  0  0  0  0  0  0  0  0  0
   13.0540   -0.1190   23.2830 C   0  0  0  0  0  0  0  0  0  0  0  0
   12.0750    0.3970   24.1210 C   0  0  0  0  0  0  0  0  0  0  0  0
   10.7480    0.0350   23.9540 C   0  0  0  0  0  0  0  0  0  0  0  0
   11.3600   -1.3930   22.1320 C   0  0  0  0  0  0  0  0  0  0  0  0
   10.3710   -0.8400   22.9430 C   0  0  0  0  0  0  0  0  0  0  0  0
    8.9110   -1.0900   22.6390 C   0  0  0  0  0  0  0  0  0  0  0  0
    8.4470   -0.2050   21.4970 C   0  0  0  0  0  0  0  0  0  0  0  0
    9.1390    0.7170   21.0730 O   0  0  0  0  0  0  0  0  0  0  0  0
    7.2300   -0.5170   20.9970 N   0  0  0  0  0  0  0  0  0  0  0  0
    6.5640    0.1230   19.9210 C   0  0  0  0  0  0  0  0  0  0  0  0
    5.4080    0.8900   20.1630 C   0  0  0  0  0  0  0  0  0  0  0  0
    4.8800    1.1180   21.5570 C   0  0  0  0  0  0  0  0  0  0  0  0
    6.9750    0.0300   18.5940 C   0  0  0  0  0  0  0  0  0  0  0  0
    6.3380    0.6020   17.5850 N   0  0  0  0  0  0  0  0  0  0  0  0
    5.2110    1.3340   17.8260 N   0  0  0  0  0  0  0  0  0  0  0  0
    4.7680    1.4680   19.0710 C   0  0  0  0  0  0  0  0  0  0  0  0
  2  1  1  0
  3  2  2  0
  4  3  1  0
  5  4  2  0
  6  2  1  0
  7  5  1  0
  7  6  2  0
  8  7  1  0
  9  8  1  0
 10  9  2  0
 11  9  1  0
 12 11  1  0
 13 12  2  0
 14 13  1  0
 15 12  1  0
 16 15  2  0
 17 16  1  0
 18 17  2  0
 18 13  1  0
M  END
