
     RDKit          3D

 22 24  0  0  0  0  0  0  0  0999 V2000
    6.7560    0.6230   17.6920 N   0  0  0  0  0  0  0  0  0  0  0  0
    4.9430    0.4620   21.6040 C   0  0  0  0  0  0  0  0  0  0  0  0
    9.6040    0.8750   20.9170 O   0  0  0  0  0  0  0  0  0  0  0  0
    5.5780    0.4700   20.2370 C   0  0  1  0  0  0  0  0  0  0  0  0
    7.6800   -0.3020   21.1540 N   0  0  0  0  0  0  0  0  0  0  0  0
    4.8970    1.0050   19.1480 C   0  0  0  0  0  0  0  0  0  0  0  0
    8.8940   -1.5670   23.3460 N   0  0  0  0  0  0  0  0  0  0  0  0
    5.5140    1.0580   17.9140 C   0  0  0  0  0  0  0  0  0  0  0  0
    9.5950   -5.0740   25.5400 N   0  0  0  0  0  0  0  0  0  0  0  0
    7.4200    0.1150   18.7370 C   0  0  0  0  0  0  0  0  0  0  0  0
    6.8890    0.0100   20.0250 C   0  0  2  0  0  0  0  0  0  0  0  0
    8.9990   -0.1040   21.3420 C   0  0  2  0  0  0  0  0  0  0  0  0
    9.6950   -1.1290   22.2190 C   0  0  0  0  0  0  0  0  0  0  0  0
    9.1240   -2.7150   24.0550 C   0  0  0  0  0  0  0  0  0  0  0  0
   10.2310   -3.5070   23.8370 C   0  0  0  0  0  0  0  0  0  0  0  0
   10.4140   -4.6550   24.5910 C   0  0  0  0  0  0  0  0  0  0  0  0
    8.4880   -4.3080   25.7920 C   0  0  0  0  0  0  0  0  0  0  0  0
    7.5850   -4.7410   26.7900 C   0  0  0  0  0  0  0  0  0  0  0  0
    6.4460   -4.0310   27.0460 C   0  0  0  0  0  0  0  0  0  0  0  0
    6.1590   -2.8720   26.3380 C   0  0  0  0  0  0  0  0  0  0  0  0
    7.0100   -2.4170   25.3740 C   0  0  0  0  0  0  0  0  0  0  0  0
    8.2030   -3.1210   25.0700 C   0  0  0  0  0  0  0  0  0  0  0  0
  4  2  1  1
  6  4  1  0
  8  6  1  0
  8  1  1  0
 10  1  1  0
 11 10  1  0
 11  5  1  1
 11  4  1  0
 12  5  1  0
 12  3  1  1
 13 12  1  0
 13  7  1  0
 14  7  1  0
 15 14  1  0
 16 15  1  0
 16  9  1  0
 17  9  1  0
 18 17  1  0
 19 18  1  0
 20 19  1  0
 21 20  1  0
 22 21  1  0
 22 17  1  0
 22 14  1  0
M  END
$$$$
