
     RDKit          3D

 17 18  0  0  0  0  0  0  0  0999 V2000
   21.1890    7.6390   22.4310 N   0  0  0  0  0  0  0  0  0  0  0  0
   21.7240    6.5490   23.1270 C   0  0  0  0  0  0  0  0  0  0  0  0
   22.2520    2.1980   25.8720 O   0  0  0  0  0  0  0  0  0  0  0  0
   21.3450    6.3350   24.4920 C   0  0  0  0  0  0  0  0  0  0  0  0
   23.9260    3.4970   26.9890 N   0  0  0  0  0  0  0  0  0  0  0  0
   24.4150    2.4500   24.7270 O   0  0  0  0  0  0  0  0  0  0  0  0
   21.8900    5.2700   25.2210 C   0  0  0  0  0  0  0  0  0  0  0  0
   24.9730    4.7070   28.5840 N   0  0  0  0  0  0  0  0  0  0  0  0
   22.8080    4.3480   24.6680 C   0  0  2  0  0  0  0  0  0  0  0  0
   23.1740    4.5910   23.2970 C   0  0  0  0  0  0  0  0  0  0  0  0
   22.6600    5.6480   22.5360 C   0  0  0  0  0  0  0  0  0  0  0  0
   24.9000    4.4020   27.2190 C   0  0  2  0  0  0  0  0  0  0  0  0
   25.6450    5.0190   26.2180 C   0  0  0  0  0  0  0  0  0  0  0  0
   26.4980    6.0080   26.6430 C   0  0  0  0  0  0  0  0  0  0  0  0
   26.5970    6.3570   27.9880 C   0  0  0  0  0  0  0  0  0  0  0  0
   25.8150    5.6880   28.9270 C   0  0  0  0  0  0  0  0  0  0  0  0
   23.3690    2.9990   25.4830 S   0  0  1  0  0  0  0  0  0  0  0  0
  2  1  1  0
  4  2  1  0
  7  4  1  0
  9  7  1  6
 10  9  1  0
 11  2  1  0
 11 10  1  0
 12  5  1  6
 12  8  1  0
 13 12  1  0
 14 13  1  0
 15 14  1  0
 16  8  1  0
 16 15  1  0
 17  9  1  0
 17  6  1  6
 17  5  1  0
 17  3  1  0
M  END
$$$$
