
     RDKit          3D

 19 21  0  0  0  0  0  0  0  0999 V2000
   13.8710   -1.3430   23.5990 C   0  0  0  0  0  0  0  0  0  0  0  0
    5.8990    0.7960   18.7620 C   0  0  0  0  0  0  0  0  0  0  0  0
    4.1060    1.8690   19.6250 C   0  0  0  0  0  0  0  0  0  0  0  0
    4.4730    1.5490   20.9290 C   0  0  0  0  0  0  0  0  0  0  0  0
    5.6210    0.8170   21.1480 C   0  0  0  0  0  0  0  0  0  0  0  0
    6.3680    0.4170   20.0350 C   0  0  0  0  0  0  0  0  0  0  0  0
   11.6060   -1.9010   22.9900 C   0  0  0  0  0  0  0  0  0  0  0  0
   10.1520   -1.5150   23.1300 C   0  0  0  0  0  0  0  0  0  0  0  0
   10.7980    0.8040   23.3610 C   0  0  0  0  0  0  0  0  0  0  0  0
   12.2480    0.4020   23.2390 C   0  0  0  0  0  0  0  0  0  0  0  0
    9.2040    0.1860   21.5790 C   0  0  0  0  0  0  0  0  0  0  0  0
    8.4460   -0.9250   20.8680 C   0  0  0  0  0  0  0  0  0  0  0  0
    7.5700   -0.3310   19.8170 C   0  0  0  0  0  0  0  0  0  0  0  0
    7.7770   -0.3570   18.4700 C   0  0  0  0  0  0  0  0  0  0  0  0
   12.4620   -0.9650   23.7210 N   0  0  0  0  0  0  0  0  0  0  0  0
    9.9680   -0.1520   22.6340 N   0  0  0  0  0  0  0  0  0  0  0  0
    6.7740    0.3220   17.8310 N   0  0  0  0  0  0  0  0  0  0  0  0
    4.7940    1.5180   18.5300 N   0  0  0  0  0  0  0  0  0  0  0  0
    9.1290    1.3450   21.1760 O   0  0  0  0  0  0  0  0  0  0  0  0
  4  3  2  0
  5  4  1  0
  6  5  2  0
  6  2  1  0
  8  7  1  0
 10  9  1  0
 12 11  1  0
 13 12  1  0
 13  6  1  0
 14 13  2  0
 15 10  1  0
 15  7  1  0
 15  1  1  0
 16 11  1  0
 16  9  1  0
 16  8  1  0
 17 14  1  0
 17  2  1  0
 18  3  1  0
 18  2  2  0
 19 11  2  0
M  END
