
     RDKit          3D

 14 15  0  0  0  0  0  0  0  0999 V2000
   21.8000   -8.0320    5.7770 Cl  0  0  0  0  0  0  0  0  0  0  0  0
   23.5850   -8.0510    5.7650 C   0  0  0  0  0  0  0  0  0  0  0  0
   24.3320   -6.7690    6.1300 C   0  0  0  0  0  0  0  0  0  0  0  0
   25.7030   -6.7470    6.1410 C   0  0  0  0  0  0  0  0  0  0  0  0
   26.4420   -7.9430    5.8010 C   0  0  0  0  0  0  0  0  0  0  0  0
   25.7180   -9.2000    5.4460 C   0  0  0  0  0  0  0  0  0  0  0  0
   26.5210  -10.4480    5.1040 C   0  0  0  0  0  0  0  0  0  0  0  0
   26.8700  -11.1320    6.2080 N   0  0  0  0  0  0  0  0  0  0  0  0
   27.8540  -10.5420    6.9570 C   0  0  0  0  0  0  0  0  0  0  0  0
   28.3210  -11.3220    8.1740 C   0  0  0  0  0  0  0  0  0  0  0  0
   28.2920  -12.7440    8.0540 O   0  0  0  0  0  0  0  0  0  0  0  0
   27.4390  -13.2910    7.1380 C   0  0  0  0  0  0  0  0  0  0  0  0
   27.2290  -12.4630    5.8820 C   0  0  0  0  0  0  0  0  0  0  0  0
   24.3080   -9.2250    5.4330 C   0  0  0  0  0  0  0  0  0  0  0  0
  2  1  1  0
  3  2  1  0
  4  3  1  0
  5  4  1  0
  6  5  1  0
  7  6  1  0
  8  7  1  0
  9  8  1  0
 10  9  1  0
 11 10  1  0
 12 11  1  0
 13  8  1  0
 13 12  1  0
 14  6  1  0
 14  2  1  0
M  END
$$$$
