
     RDKit          3D

 22 24  0  0  0  0  0  0  0  0999 V2000
    7.1390   -2.8960   21.3980 N   0  0  0  0  0  0  0  0  0  0  0  0
    7.3100   -2.4200   19.0000 C   0  0  0  0  0  0  0  0  0  0  0  0
    6.0210   -4.1900   19.9360 O   0  0  0  0  0  0  0  0  0  0  0  0
    6.7750   -3.2550   20.1480 C   0  0  0  0  0  0  0  0  0  0  0  0
   14.3040   -1.5720   20.7040 N   0  0  0  0  0  0  0  0  0  0  0  0
    8.0770   -1.8160   21.7400 C   0  0  0  0  0  0  0  0  0  0  0  0
    8.7840   -1.8630   23.1040 C   0  0  2  0  0  0  0  0  0  0  0  0
   10.1520   -1.1900   23.1370 C   0  0  0  0  0  0  0  0  0  0  0  0
   10.4220   -0.2500   24.1250 C   0  0  0  0  0  0  0  0  0  0  0  0
   11.6370    0.4150   24.1590 C   0  0  0  0  0  0  0  0  0  0  0  0
   12.6060    0.1400   23.2110 C   0  0  0  0  0  0  0  0  0  0  0  0
   12.3660   -0.8270   22.2380 C   0  0  1  0  0  0  0  0  0  0  0  0
   13.4340   -1.2500   21.3680 C   0  0  0  0  0  0  0  0  0  0  0  0
   11.1330   -1.4780   22.1920 C   0  0  0  0  0  0  0  0  0  0  0  0
    8.7460   -3.2440   23.7160 C   0  0  1  0  0  0  0  0  0  0  0  0
    9.7550   -3.6790   24.5760 C   0  0  0  0  0  0  0  0  0  0  0  0
    9.6470   -4.8910   25.2360 C   0  0  0  0  0  0  0  0  0  0  0  0
    8.5430   -5.6870   25.0350 C   0  0  0  0  0  0  0  0  0  0  0  0
    7.5410   -5.2790   24.1670 C   0  0  0  0  0  0  0  0  0  0  0  0
    7.6320   -4.0560   23.5040 C   0  0  0  0  0  0  0  0  0  0  0  0
    6.5540   -3.5520   22.5790 C   0  0  0  0  0  0  0  0  0  0  0  0
    8.7870   -3.3640   18.6670 S   0  0  0  0  0  0  0  0  0  0  0  0
  4  3  1  0
  4  2  1  0
  4  1  1  0
  6  1  1  0
  7  6  1  0
  7  8  1  6
  9  8  1  0
 10  9  1  0
 11 10  1  0
 12 11  1  0
 13  5  1  0
 12 13  1  1
 14  8  1  0
 14 12  1  0
 15  7  1  0
 15 16  1  1
 17 16  1  0
 18 17  1  0
 19 18  1  0
 20 19  1  0
 20 15  1  0
 21  1  1  0
 21 20  1  0
  2 22  1  0
M  END
