
     RDKit          3D

 26 28  0  0  0  0  0  0  0  0999 V2000
   12.0470    0.5290   23.5650 O   0  0  0  0  0  0  0  0  0  0  0  0
   11.2200   -0.0310   24.5860 S   0  0  2  0  0  0  0  0  0  0  0  0
   10.9240    0.7320   25.7590 O   0  0  0  0  0  0  0  0  0  0  0  0
   11.9800   -1.5510   25.1170 C   0  0  0  0  0  0  0  0  0  0  0  0
   11.2290   -2.6550   25.6170 C   0  0  0  0  0  0  0  0  0  0  0  0
    9.8650   -2.6370   25.5340 N   0  0  0  0  0  0  0  0  0  0  0  0
    9.2130   -3.7220   25.9200 C   0  0  0  0  0  0  0  0  0  0  0  0
    9.8210   -4.8650   26.4040 C   0  0  0  0  0  0  0  0  0  0  0  0
   11.1800   -4.8940   26.5010 C   0  0  0  0  0  0  0  0  0  0  0  0
   11.9470   -3.7730   26.1060 C   0  0  0  0  0  0  0  0  0  0  0  0
   13.3620   -3.7450   26.0930 C   0  0  0  0  0  0  0  0  0  0  0  0
   14.0330   -2.6780   25.5820 C   0  0  0  0  0  0  0  0  0  0  0  0
   13.3480   -1.5850   25.0830 C   0  0  0  0  0  0  0  0  0  0  0  0
    9.7890   -0.3860   23.8950 N   0  0  0  0  0  0  0  0  0  0  0  0
    8.5860   -0.3160   24.7310 C   0  0  0  0  0  0  0  0  0  0  0  0
    9.6770   -1.0530   22.5840 C   0  0  0  0  0  0  0  0  0  0  0  0
    9.0880   -0.1620   21.5050 C   0  0  0  0  0  0  0  0  0  0  0  0
    9.6690    0.8480   21.1130 O   0  0  0  0  0  0  0  0  0  0  0  0
    7.8850   -0.5740   21.0490 N   0  0  0  0  0  0  0  0  0  0  0  0
    7.1180    0.0070   20.0120 C   0  0  0  0  0  0  0  0  0  0  0  0
    5.8840    0.6140   20.3100 C   0  0  0  0  0  0  0  0  0  0  0  0
    5.3640    0.7140   21.7210 C   0  0  0  0  0  0  0  0  0  0  0  0
    5.1570    1.1410   19.2450 C   0  0  0  0  0  0  0  0  0  0  0  0
    5.6640    1.0560   17.9640 C   0  0  0  0  0  0  0  0  0  0  0  0
    6.8390    0.4890   17.6690 N   0  0  0  0  0  0  0  0  0  0  0  0
    7.5440   -0.0240   18.6830 C   0  0  0  0  0  0  0  0  0  0  0  0
  2  1  2  0
  3  2  2  0
  4  2  1  0
  5  4  1  0
  6  5  2  0
  7  6  1  0
  8  7  2  0
  9  8  1  0
 10  9  2  0
 10  5  1  0
 11 10  1  0
 12 11  2  0
 13 12  1  0
 13  4  2  0
  2 14  1  6
 15 14  1  0
 16 14  1  0
 17 16  1  0
 18 17  2  0
 19 17  1  0
 20 19  1  0
 21 20  2  0
 22 21  1  0
 23 21  1  0
 24 23  2  0
 25 24  1  0
 26 25  2  0
 26 20  1  0
M  END
