
     RDKit          3D

 17 19  0  0  0  0  0  0  0  0999 V2000
    6.5680    0.5790   17.5740 N   0  0  0  0  0  0  0  0  0  0  0  0
    5.0450    1.0980   21.5770 C   0  0  0  0  0  0  0  0  0  0  0  0
    9.1480    1.1520   21.0220 O   0  0  0  0  0  0  0  0  0  0  0  0
    5.5500    0.8490   20.1790 C   0  0  0  0  0  0  0  0  0  0  0  0
    7.4780   -0.3760   21.0120 N   0  0  0  0  0  0  0  0  0  0  0  0
    4.8800    1.3710   19.0800 C   0  0  0  0  0  0  0  0  0  0  0  0
    5.4220    1.2230   17.8170 C   0  0  0  0  0  0  0  0  0  0  0  0
    7.2040    0.0400   18.6180 C   0  0  0  0  0  0  0  0  0  0  0  0
    6.7470    0.1510   19.9310 C   0  0  0  0  0  0  0  0  0  0  0  0
    8.5930    0.1820   21.5180 C   0  0  0  0  0  0  0  0  0  0  0  0
    9.0970   -0.4700   22.7810 C   0  0  1  0  0  0  0  0  0  0  0  0
    9.9660   -1.7420   22.6050 C   0  0  0  0  0  0  0  0  0  0  0  0
   11.1940   -0.8080   22.6500 C   0  0  1  0  0  0  0  0  0  0  0  0
   10.3320    0.1850   23.4520 C   0  0  0  0  0  0  0  0  0  0  0  0
   12.3240   -1.3160   23.3940 C   0  0  1  0  0  0  0  0  0  0  0  0
   13.6150   -1.6280   22.7050 C   0  0  0  0  0  0  0  0  0  0  0  0
   13.5180   -0.4390   23.6000 C   0  0  0  0  0  0  0  0  0  0  0  0
  4  2  1  0
  6  4  2  0
  7  6  1  0
  7  1  2  0
  8  1  1  0
  9  8  2  0
  9  5  1  0
  9  4  1  0
 10  5  1  0
 10  3  2  0
 11 10  1  6
 12 11  1  0
 13 12  1  1
 14 11  1  0
 14 13  1  0
 15 13  1  0
 15 16  1  6
 17 16  1  0
 17 15  1  0
M  END
