
     RDKit          3D

 17 19  0  0  0  0  0  0  0  0999 V2000
    9.6760    1.1600   21.1860 O   0  0  0  0  0  0  0  0  0  0  0  0
    9.5290   -0.0370   21.4310 C   0  0  0  0  0  0  0  0  0  0  0  0
   10.5240   -0.8090   22.2690 C   0  0  2  0  0  0  0  0  0  0  0  0
   11.0800   -0.0910   23.4920 C   0  0  1  0  0  0  0  0  0  0  0  0
   11.3880   -0.9080   24.7510 C   0  0  0  0  0  0  0  0  0  0  0  0
   12.8350   -1.4050   24.8270 C   0  0  0  0  0  0  0  0  0  0  0  0
   13.2210   -2.1750   23.5790 C   0  0  0  0  0  0  0  0  0  0  0  0
   13.0890   -1.3150   22.3160 C   0  0  0  0  0  0  0  0  0  0  0  0
   11.9530   -0.2790   22.2900 C   0  0  1  0  0  0  0  0  0  0  0  0
    8.4950   -0.7700   20.9730 N   0  0  0  0  0  0  0  0  0  0  0  0
    7.5150   -0.2440   20.0850 C   0  0  0  0  0  0  0  0  0  0  0  0
    6.2770    0.2080   20.5960 C   0  0  0  0  0  0  0  0  0  0  0  0
    5.9140    0.0530   22.0540 C   0  0  0  0  0  0  0  0  0  0  0  0
    7.7480   -0.1070   18.7130 C   0  0  0  0  0  0  0  0  0  0  0  0
    6.8700    0.4280   17.8580 N   0  0  0  0  0  0  0  0  0  0  0  0
    5.7060    0.8550   18.3590 C   0  0  0  0  0  0  0  0  0  0  0  0
    5.3790    0.7810   19.6970 C   0  0  0  0  0  0  0  0  0  0  0  0
  2  1  2  0
  3  2  1  6
  4  3  1  0
  4  5  1  1
  6  5  1  0
  7  6  1  0
  8  7  1  0
  9  3  1  0
  9  8  1  1
  9  4  1  0
 10  2  1  0
 11 10  1  0
 12 11  2  0
 13 12  1  0
 14 11  1  0
 15 14  2  0
 16 15  1  0
 17 16  2  0
 17 12  1  0
M  END
