
     RDKit          3D

 33 36  0  0  0  0  0  0  0  0999 V2000
    8.9620    1.7680   21.3190 O   0  0  0  0  0  0  0  0  0  0  0  0
    9.0950    1.8420   22.4810 C   0  0  0  0  0  0  0  0  0  0  0  0
    9.0830    3.2220   23.1920 C   0  0  0  0  0  0  0  0  0  0  0  0
    9.1280    3.4480   24.5580 C   0  0  0  0  0  0  0  0  0  0  0  0
    9.1490    4.8620   24.7360 C   0  0  0  0  0  0  0  0  0  0  0  0
    9.1770    5.7000   25.8710 C   0  0  0  0  0  0  0  0  0  0  0  0
    9.1850    7.0790   25.7050 C   0  0  0  0  0  0  0  0  0  0  0  0
    9.1710    7.6390   24.4270 C   0  0  0  0  0  0  0  0  0  0  0  0
    9.1400    6.8190   23.3160 C   0  0  0  0  0  0  0  0  0  0  0  0
    9.1290    5.4130   23.4840 C   0  0  0  0  0  0  0  0  0  0  0  0
    9.1030    4.3980   22.5660 N   0  0  0  0  0  0  0  0  0  0  0  0
    9.3490    0.6290   23.2900 N   0  0  0  0  0  0  0  0  0  0  0  0
    9.4210   -0.6200   22.6190 C   0  0  1  0  0  0  0  0  0  0  0  0
    9.9340   -1.7170   23.5940 C   0  0  0  0  0  0  0  0  0  0  0  0
   11.3310   -1.3450   24.2480 C   0  0  1  0  0  0  0  0  0  0  0  0
   11.7310   -2.4760   25.1980 C   0  0  0  0  0  0  0  0  0  0  0  0
   13.1090   -2.2290   25.8160 C   0  0  0  0  0  0  0  0  0  0  0  0
   14.1750   -1.9750   24.7410 C   0  0  0  0  0  0  0  0  0  0  0  0
   13.7600   -0.8780   23.7630 C   0  0  0  0  0  0  0  0  0  0  0  0
   12.3870   -1.1660   23.1500 C   0  0  0  0  0  0  0  0  0  0  0  0
    8.0700   -1.0630   22.0730 C   0  0  0  0  0  0  0  0  0  0  0  0
    8.1260   -1.7910   20.8210 N   0  0  0  0  0  0  0  0  0  0  0  0
    6.8810   -2.3120   20.2230 C   0  0  1  0  0  0  0  0  0  0  0  0
    6.4340   -1.4810   19.0060 C   0  0  0  0  0  0  0  0  0  0  0  0
    6.0140    0.0280   19.4890 C   0  0  2  0  0  0  0  0  0  0  0  0
    4.9580    0.0190   20.0730 C   0  0  0  0  0  0  0  0  0  0  0  0
    4.1530    1.4630   19.6360 C   0  0  0  0  0  0  0  0  0  0  0  0
    4.5020    1.7490   18.4460 N   0  0  0  0  0  0  0  0  0  0  0  0
    5.7500    0.8890   18.1550 C   0  0  0  0  0  0  0  0  0  0  0  0
    6.3760    0.8600   17.1650 O   0  0  0  0  0  0  0  0  0  0  0  0
    6.9570   -3.7930   19.8700 C   0  0  0  0  0  0  0  0  0  0  0  0
    5.9510   -4.3500   19.5900 O   0  0  0  0  0  0  0  0  0  0  0  0
    7.0670   -0.8650   22.6630 O   0  0  0  0  0  0  0  0  0  0  0  0
  2  1  2  0
  3  2  1  0
  4  3  2  0
  5  4  1  0
  6  5  2  0
  7  6  1  0
  8  7  2  0
  9  8  1  0
 10  5  1  0
 10  9  2  0
 11 10  1  0
 11  3  1  0
 12  2  1  0
 13 12  1  0
 13 14  1  1
 15 14  1  6
 16 15  1  0
 17 16  1  0
 18 17  1  0
 19 18  1  0
 20 19  1  0
 20 15  1  0
 21 13  1  0
 22 21  1  0
 23 22  1  0
 23 24  1  6
 25 24  1  6
 26 25  1  0
 27 26  1  0
 28 27  1  0
 29 28  1  0
 29 25  1  0
 30 29  2  0
 31 23  1  0
 32 31  2  0
 33 21  2  0
M  END
$$$$
