
     RDKit          3D

 17 18  0  0  0  0  0  0  0  0999 V2000
    5.8750   -3.6120   21.7010 N   0  0  0  0  0  0  0  0  0  0  0  0
    4.7950   -0.4860   26.0140 C   0  0  0  0  0  0  0  0  0  0  0  0
    5.8410   -0.6980   25.0340 O   0  0  0  0  0  0  0  0  0  0  0  0
    5.6560   -1.7030   24.1730 C   0  0  0  0  0  0  0  0  0  0  0  0
    4.6610   -2.3820   24.1330 O   0  0  0  0  0  0  0  0  0  0  0  0
    6.8360   -1.8950   23.2850 C   0  0  0  0  0  0  0  0  0  0  0  0
    5.6790   -5.1670   20.0220 O   0  0  0  0  0  0  0  0  0  0  0  0
    6.8690   -2.8040   22.2090 C   0  0  0  0  0  0  0  0  0  0  0  0
    8.4680   -5.2060   21.0500 O   0  0  0  0  0  0  0  0  0  0  0  0
    6.3310   -4.3590   20.6690 C   0  0  0  0  0  0  0  0  0  0  0  0
    7.8140   -4.0860   20.4710 C   0  0  0  0  0  0  0  0  0  0  0  0
    8.0360   -2.9710   21.4680 C   0  0  0  0  0  0  0  0  0  0  0  0
    9.1680   -2.2230   21.7650 C   0  0  0  0  0  0  0  0  0  0  0  0
    9.1280   -1.3420   22.8270 C   0  0  0  0  0  0  0  0  0  0  0  0
    7.9830   -1.1560   23.5800 C   0  0  0  0  0  0  0  0  0  0  0  0
   10.7170   -0.4410   23.3340 Br  0  0  0  0  0  0  0  0  0  0  0  0
    8.3340   -3.5560   18.7710 S   0  0  0  0  0  0  0  0  0  0  0  0
  3  2  1  0
  4  3  1  0
  5  4  2  0
  6  4  1  0
  8  1  1  0
  8  6  2  0
 10  7  2  0
 10  1  1  0
 11 10  1  0
 11  9  1  1
 12 11  1  0
 12  8  1  0
 13 12  2  0
 14 13  1  0
 15 14  2  0
 15  6  1  0
 16 14  1  0
 11 17  1  0
M  END
