
     RDKit          3D

 20 21  0  0  0  0  0  0  0  0999 V2000
    5.4260   -5.5140   24.3280 N   0  0  0  0  0  0  0  0  0  0  0  0
    2.8700   -1.9410   25.7940 C   0  0  0  0  0  0  0  0  0  0  0  0
    4.0020   -6.7540   25.9060 O   0  0  0  0  0  0  0  0  0  0  0  0
    1.5300   -2.2290   25.7050 C   0  0  0  0  0  0  0  0  0  0  0  0
    6.4420   -5.0920   21.7340 N   0  0  0  0  0  0  0  0  0  0  0  0
    5.6770   -5.1420   26.7510 O   0  0  0  0  0  0  0  0  0  0  0  0
    1.1600   -3.5580   25.6480 C   0  0  0  0  0  0  0  0  0  0  0  0
    5.7280   -4.4690   19.6800 O   0  0  0  0  0  0  0  0  0  0  0  0
    2.1200   -4.5590   25.6720 C   0  0  0  0  0  0  0  0  0  0  0  0
    3.4630   -4.2260   25.7570 C   0  0  0  0  0  0  0  0  0  0  0  0
    3.8560   -2.9000   25.8190 C   0  0  0  0  0  0  0  0  0  0  0  0
    6.4630   -4.4950   24.0990 C   0  0  0  0  0  0  0  0  0  0  0  0
    7.2950   -4.8860   22.9060 C   0  0  0  0  0  0  0  0  0  0  0  0
    5.4190   -6.1070   21.9810 C   0  0  0  0  0  0  0  0  0  0  0  0
    4.5640   -5.6980   23.1500 C   0  0  0  0  0  0  0  0  0  0  0  0
    6.5780   -4.4320   20.5600 C   0  0  0  0  0  0  0  0  0  0  0  0
    7.8450   -3.6450   20.3520 C   0  0  0  0  0  0  0  0  0  0  0  0
    3.2470   -0.6450   25.8510 F   0  0  0  0  0  0  0  0  0  0  0  0
    4.6840   -5.5030   25.7890 S   0  0  0  0  0  0  0  0  0  0  0  0
    8.2750   -3.3950   18.6070 S   0  0  0  0  0  0  0  0  0  0  0  0
  4  2  2  0
  7  4  1  0
  9  7  2  0
 10  9  1  0
 11 10  2  0
 11  2  1  0
 12  1  1  0
 13  5  1  0
 13 12  1  0
 14  5  1  0
 15 14  1  0
 15  1  1  0
 16  8  2  0
 16  5  1  0
 17 16  1  0
 18  2  1  0
 19  3  2  0
 19  1  1  0
 19 10  1  0
 19  6  2  0
 17 20  1  0
M  END
