
     RDKit          3D

 20 21  0  0  0  0  0  0  0  0999 V2000
    5.4910   -5.5570   24.3360 N   0  0  0  0  0  0  0  0  0  0  0  0
    2.9430   -1.9830   25.8110 C   0  0  0  0  0  0  0  0  0  0  0  0
    4.0650   -6.7990   25.9110 O   0  0  0  0  0  0  0  0  0  0  0  0
    1.6020   -2.2690   25.7220 C   0  0  0  0  0  0  0  0  0  0  0  0
    6.6440   -4.4690   20.5690 C   0  0  0  0  0  0  0  0  0  0  0  0
    7.9120   -3.6840   20.3630 C   0  0  0  0  0  0  0  0  0  0  0  0
    1.2290   -3.5970   25.6620 C   0  0  0  0  0  0  0  0  0  0  0  0
    2.1870   -4.5990   25.6830 C   0  0  0  0  0  0  0  0  0  0  0  0
    3.5310   -4.2690   25.7680 C   0  0  0  0  0  0  0  0  0  0  0  0
    3.9270   -2.9450   25.8340 C   0  0  0  0  0  0  0  0  0  0  0  0
    6.5300   -4.5400   24.1080 C   0  0  0  0  0  0  0  0  0  0  0  0
    7.3610   -4.9300   22.9140 C   0  0  0  0  0  0  0  0  0  0  0  0
    5.4820   -6.1450   21.9870 C   0  0  0  0  0  0  0  0  0  0  0  0
    4.6280   -5.7370   23.1570 C   0  0  0  0  0  0  0  0  0  0  0  0
    3.3230   -0.6880   25.8710 F   0  0  0  0  0  0  0  0  0  0  0  0
    6.5070   -5.1320   21.7420 N   0  0  0  0  0  0  0  0  0  0  0  0
    5.7440   -5.1930   26.7590 O   0  0  0  0  0  0  0  0  0  0  0  0
    5.7940   -4.5020   19.6890 O   0  0  0  0  0  0  0  0  0  0  0  0
    4.7500   -5.5490   25.7970 S   0  0  2  0  0  0  0  0  0  0  0  0
    8.3410   -3.4300   18.6180 S   0  0  0  0  0  0  0  0  0  0  0  0
  4  2  1  0
  6  5  1  0
  7  4  1  0
  8  7  1  0
  9  8  1  0
 10  9  1  0
 10  2  1  0
 11  1  1  0
 12 11  1  0
 14 13  1  0
 14  1  1  0
 15  2  1  0
 16 13  1  0
 16  5  1  0
 16 12  1  0
 18  5  1  0
 19  3  1  1
 19  9  1  0
 19  1  1  0
 19 17  1  0
  6 20  1  0
M  END
$$$$
