
     RDKit          3D

 18 19  0  0  0  0  0  0  0  0999 V2000
    8.5250   -3.9450   20.9170 O   0  0  0  0  0  0  0  0  0  0  0  0
    5.9520    0.6630   18.4940 C   0  0  0  0  0  0  0  0  0  0  0  0
    5.8100   -0.2250   19.7050 C   0  0  0  0  0  0  0  0  0  0  0  0
    6.2360   -3.0580   19.3120 O   0  0  0  0  0  0  0  0  0  0  0  0
    7.0040   -1.0000   20.0190 N   0  0  0  0  0  0  0  0  0  0  0  0
    8.4350    0.7760   21.1040 C   0  0  0  0  0  0  0  0  0  0  0  0
    9.6380    1.0000   21.7600 C   0  0  0  0  0  0  0  0  0  0  0  0
    6.8910    0.6420   17.7410 O   0  0  0  0  0  0  0  0  0  0  0  0
    4.9450    1.4780   18.3690 O   0  0  0  0  0  0  0  0  0  0  0  0
    7.1190   -2.3410   19.7510 C   0  0  0  0  0  0  0  0  0  0  0  0
    8.1530   -0.5080   20.6500 C   0  0  0  0  0  0  0  0  0  0  0  0
    9.0590   -1.5420   20.8370 C   0  0  0  0  0  0  0  0  0  0  0  0
   10.2310   -1.3030   21.5300 C   0  0  0  0  0  0  0  0  0  0  0  0
    8.5340   -2.7610   20.1260 C   0  0  1  0  0  0  0  0  0  0  0  0
   10.5500   -0.0310   21.9860 C   0  0  0  0  0  0  0  0  0  0  0  0
   11.8770    0.2310   22.6670 C   0  0  0  0  0  0  0  0  0  0  0  0
   13.0450   -0.5120   22.0010 C   0  0  0  0  0  0  0  0  0  0  0  0
    9.0810   -3.3460   18.4810 S   0  0  0  0  0  0  0  0  0  0  0  0
  3  2  1  0
  5  3  1  0
  7  6  2  0
  8  2  1  0
  9  2  2  0
 10  5  1  0
 10  4  2  0
 11  6  1  0
 11  5  1  0
 12 11  2  0
 13 12  1  0
 14 12  1  0
 14 10  1  0
 14  1  1  1
 15 13  2  0
 15  7  1  0
 16 15  1  0
 17 16  1  0
 14 18  1  0
M  END
