
     RDKit          3D

 18 19  0  0  0  0  0  0  0  0999 V2000
    8.6970    0.5120   21.2930 O   0  0  0  0  0  0  0  0  0  0  0  0
    7.9650   -0.4640   21.5200 C   0  0  0  0  0  0  0  0  0  0  0  0
    8.1590   -1.3800   22.7120 C   0  0  0  0  0  0  0  0  0  0  0  0
    9.6090   -1.2970   23.0910 C   0  0  0  0  0  0  0  0  0  0  0  0
   10.5770   -1.8000   22.2390 C   0  0  0  0  0  0  0  0  0  0  0  0
   11.9000   -1.4350   22.3800 C   0  0  0  0  0  0  0  0  0  0  0  0
   10.0170   -0.4920   24.1420 C   0  0  0  0  0  0  0  0  0  0  0  0
   11.3430   -0.1400   24.2880 C   0  0  0  0  0  0  0  0  0  0  0  0
   12.3010   -0.5810   23.3920 C   0  0  0  0  0  0  0  0  0  0  0  0
   13.7190   -0.1000   23.4790 C   0  0  0  0  0  0  0  0  0  0  0  0
    6.9110   -0.7990   20.7740 N   0  0  0  0  0  0  0  0  0  0  0  0
    6.3980   -0.0170   19.7300 C   0  0  0  0  0  0  0  0  0  0  0  0
    5.3010    0.8220   19.9610 C   0  0  0  0  0  0  0  0  0  0  0  0
    4.7530    1.0600   21.3450 C   0  0  0  0  0  0  0  0  0  0  0  0
    4.7740    1.4920   18.8690 C   0  0  0  0  0  0  0  0  0  0  0  0
    5.3710    1.3540   17.6350 C   0  0  0  0  0  0  0  0  0  0  0  0
    6.4490    0.5930   17.4180 N   0  0  0  0  0  0  0  0  0  0  0  0
    6.9430   -0.0860   18.4560 C   0  0  0  0  0  0  0  0  0  0  0  0
  2  1  2  0
  3  2  1  0
  4  3  1  0
  5  4  2  0
  6  5  1  0
  7  4  1  0
  8  7  2  0
  9  8  1  0
  9  6  2  0
 10  9  1  0
 11  2  1  0
 12 11  1  0
 13 12  2  0
 14 13  1  0
 15 13  1  0
 16 15  2  0
 17 16  1  0
 18 17  2  0
 18 12  1  0
M  END
