
     RDKit          3D

 29 30  0  0  0  0  0  0  0  0999 V2000
    7.4320    3.7610   23.0810 C   0  0  0  0  0  0  0  0  0  0  0  0
    7.1850    4.8140   22.2140 C   0  0  0  0  0  0  0  0  0  0  0  0
    5.8900    5.0960   21.8030 C   0  0  0  0  0  0  0  0  0  0  0  0
    4.8330    4.3430   22.2650 C   0  0  0  0  0  0  0  0  0  0  0  0
    5.0650    3.2980   23.1270 C   0  0  0  0  0  0  0  0  0  0  0  0
    6.3600    3.0090   23.5360 C   0  0  0  0  0  0  0  0  0  0  0  0
    8.8280    3.4570   23.5480 C   0  0  0  0  0  0  0  0  0  0  0  0
    9.7010    3.1100   22.4450 O   0  0  0  0  0  0  0  0  0  0  0  0
    9.5200    1.8910   21.9120 C   0  0  0  0  0  0  0  0  0  0  0  0
    8.9160    1.6840   20.8820 O   0  0  0  0  0  0  0  0  0  0  0  0
   10.1160    0.9450   22.6590 N   0  0  0  0  0  0  0  0  0  0  0  0
   10.2290   -0.4120   22.1550 C   0  0  1  0  0  0  0  0  0  0  0  0
   11.0500   -1.2670   23.1150 C   0  0  0  0  0  0  0  0  0  0  0  0
   12.5110   -0.8440   23.2690 C   0  0  1  0  0  0  0  0  0  0  0  0
   13.2550   -1.8250   24.1470 C   0  0  0  0  0  0  0  0  0  0  0  0
   13.2030   -0.7100   21.9220 C   0  0  0  0  0  0  0  0  0  0  0  0
    8.8730   -1.0670   21.9020 C   0  0  0  0  0  0  0  0  0  0  0  0
    8.1400   -1.3570   22.8480 O   0  0  0  0  0  0  0  0  0  0  0  0
    8.5690   -1.3170   20.6240 N   0  0  0  0  0  0  0  0  0  0  0  0
    7.3150   -1.9210   20.1630 C   0  0  2  0  0  0  0  0  0  0  0  0
    7.5510   -3.4070   19.8520 C   0  0  0  0  0  0  0  0  0  0  0  0
    6.3040   -4.0970   19.7450 O   0  0  0  0  0  0  0  0  0  0  0  0
    6.7710   -1.1180   18.9760 C   0  0  0  0  0  0  0  0  0  0  0  0
    6.3880    0.3030   19.3760 C   0  0  2  0  0  0  0  0  0  0  0  0
    5.1800    0.4500   20.2930 C   0  0  0  0  0  0  0  0  0  0  0  0
    4.5670    1.7880   19.9010 C   0  0  0  0  0  0  0  0  0  0  0  0
    5.0260    1.9700   18.5270 N   0  0  0  0  0  0  0  0  0  0  0  0
    6.0490    1.1890   18.1930 C   0  0  0  0  0  0  0  0  0  0  0  0
    6.6470    1.1970   17.0990 O   0  0  0  0  0  0  0  0  0  0  0  0
  2  1  1  0
  3  2  1  0
  4  3  1  0
  5  4  1  0
  6  5  1  0
  6  1  1  0
  7  1  1  0
  8  7  1  0
  9  8  1  0
 10  9  1  0
 11  9  1  0
 12 11  1  0
 12 13  1  1
 14 13  1  0
 14 15  1  1
 16 14  1  0
 17 12  1  0
 18 17  1  0
 19 17  1  0
 20 19  1  0
 20 21  1  6
 22 21  1  0
 23 20  1  0
 24 23  1  6
 25 24  1  0
 26 25  1  0
 27 26  1  0
 28 27  1  0
 28 24  1  0
 29 28  1  0
M  END
