
     RDKit          3D

 16 15  0  0  0  0  0  0  0  0999 V2000
   -1.8950  -21.4670    9.2490 O   0  0  0  0  0  0  0  0  0  0  0  0
    0.6010  -18.6550    9.3850 O   0  0  0  0  0  0  0  0  0  0  0  0
    3.4190  -20.5090    8.2550 O   0  0  0  0  0  0  0  0  0  0  0  0
    4.0360  -23.2630    9.0150 O   0  0  0  0  0  0  0  0  0  0  0  0
    4.5920  -25.0320   11.1460 O   0  0  0  0  0  0  0  0  0  0  0  0
    6.3160  -26.5290   12.9260 O   0  0  0  0  0  0  0  0  0  0  0  0
   -1.3660  -20.1160    8.9320 C   0  0  0  0  0  0  0  0  0  0  0  0
    3.1040  -19.1450    8.8640 C   0  0  0  0  0  0  0  0  0  0  0  0
    4.7420  -22.5840    7.9540 C   0  0  0  0  0  0  0  0  0  0  0  0
    3.5530  -25.2870   10.1940 C   0  0  0  0  0  0  0  0  0  0  0  0
    5.4670  -25.4190   13.2510 C   0  0  0  0  0  0  0  0  0  0  0  0
   -0.3560  -19.6900   10.0140 C   0  0  0  0  0  0  0  0  0  0  0  0
    1.8000  -19.3760    9.7070 C   0  0  0  0  0  0  0  0  0  0  0  0
    4.7090  -21.0780    8.4180 C   0  0  0  0  0  0  0  0  0  0  0  0
    4.0710  -24.6840    8.9000 C   0  0  0  0  0  0  0  0  0  0  0  0
    4.1760  -25.4890   12.4550 C   0  0  0  0  0  0  0  0  0  0  0  0
  7  1  1  0
  8  3  1  0
  9  4  1  0
 10  5  1  0
 11  6  1  0
 12  7  1  0
 12  2  1  0
 13  8  1  0
 13  2  1  0
 14  9  1  0
 14  3  1  0
 15 10  1  0
 15  4  1  0
 16  5  1  0
 16 11  1  0
M  END
