
     RDKit          3D

 21 23  0  0  0  0  0  0  0  0999 V2000
    7.2090   -0.7470   20.6790 N   0  0  0  0  0  0  0  0  0  0  0  0
   12.5680   -1.0470   22.2240 C   0  0  0  0  0  0  0  0  0  0  0  0
    8.8410    0.7960   21.0050 O   0  0  0  0  0  0  0  0  0  0  0  0
   13.8130   -1.7950   21.2610 Cl  0  0  0  0  0  0  0  0  0  0  0  0
   12.9090   -0.0640   23.1350 C   0  0  0  0  0  0  0  0  0  0  0  0
    6.2490    0.5190   17.3440 N   0  0  0  0  0  0  0  0  0  0  0  0
   11.9010    0.5160   23.8960 C   0  0  0  0  0  0  0  0  0  0  0  0
   10.5810    0.1250   23.7160 C   0  0  0  0  0  0  0  0  0  0  0  0
   10.2480   -0.8450   22.7750 C   0  0  0  0  0  0  0  0  0  0  0  0
    8.8080   -1.1440   22.4340 C   0  0  0  0  0  0  0  0  0  0  0  0
    8.3140   -0.2820   21.2880 C   0  0  0  0  0  0  0  0  0  0  0  0
    6.4750   -0.1080   19.6620 C   0  0  0  0  0  0  0  0  0  0  0  0
    6.8550   -0.1520   18.3270 C   0  0  0  0  0  0  0  0  0  0  0  0
    5.2010    1.2720   17.6640 C   0  0  0  0  0  0  0  0  0  0  0  0
    4.6900    1.4080   18.9760 C   0  0  0  0  0  0  0  0  0  0  0  0
    3.5580    2.2050   19.2930 C   0  0  0  0  0  0  0  0  0  0  0  0
    3.1110    2.2960   20.5830 C   0  0  0  0  0  0  0  0  0  0  0  0
    3.7700    1.6280   21.6070 C   0  0  0  0  0  0  0  0  0  0  0  0
    4.8730    0.8600   21.3430 C   0  0  0  0  0  0  0  0  0  0  0  0
    5.3580    0.7080   20.0160 C   0  0  0  0  0  0  0  0  0  0  0  0
   11.2640   -1.4550   22.0500 C   0  0  0  0  0  0  0  0  0  0  0  0
  4  2  1  0
  5  2  2  0
  7  5  1  0
  8  7  2  0
  9  8  1  0
 10  9  1  0
 11  3  2  0
 11  1  1  0
 11 10  1  0
 12  1  1  0
 13 12  1  0
 13  6  2  0
 14  6  1  0
 15 14  2  0
 16 15  1  0
 17 16  2  0
 18 17  1  0
 19 18  2  0
 20 19  1  0
 20 15  1  0
 20 12  2  0
 21  9  2  0
 21  2  1  0
M  END
