
     RDKit          3D

 19 20  0  0  0  0  0  0  0  0999 V2000
    5.2310   -4.8200   26.1140 N   0  0  0  0  0  0  0  0  0  0  0  0
    6.6880   -4.9430   26.1940 C   0  0  0  0  0  0  0  0  0  0  0  0
    4.6020   -5.7000   25.5480 O   0  0  0  0  0  0  0  0  0  0  0  0
    7.2090   -5.3400   27.4200 C   0  0  0  0  0  0  0  0  0  0  0  0
    7.0170   -4.2730   23.8740 N   0  0  0  0  0  0  0  0  0  0  0  0
    4.7010   -3.8630   26.6550 O   0  0  0  0  0  0  0  0  0  0  0  0
    8.5740   -5.4760   27.5700 C   0  0  0  0  0  0  0  0  0  0  0  0
    6.8890   -4.1750   21.0450 N   0  0  0  0  0  0  0  0  0  0  0  0
    5.4270   -4.5420   19.3680 O   0  0  0  0  0  0  0  0  0  0  0  0
    9.4240   -5.2200   26.5110 C   0  0  0  0  0  0  0  0  0  0  0  0
    8.9160   -4.8210   25.2850 C   0  0  0  0  0  0  0  0  0  0  0  0
    7.5430   -4.6760   25.1000 C   0  0  0  0  0  0  0  0  0  0  0  0
    7.4430   -3.0600   23.1650 C   0  0  0  0  0  0  0  0  0  0  0  0
    7.8990   -3.3850   21.7580 C   0  0  0  0  0  0  0  0  0  0  0  0
    6.5020   -5.3870   21.7650 C   0  0  0  0  0  0  0  0  0  0  0  0
    5.9950   -5.0280   23.1410 C   0  0  0  0  0  0  0  0  0  0  0  0
    6.3480   -3.8950   19.8410 C   0  0  0  0  0  0  0  0  0  0  0  0
    6.9630   -2.7910   19.0350 C   0  0  0  0  0  0  0  0  0  0  0  0
    8.5740   -3.3800   18.4570 S   0  0  0  0  0  0  0  0  0  0  0  0
  2  1  1  0
  3  1  1  0
  4  2  2  0
  6  1  2  0
  7  4  1  0
 10  7  2  0
 11 10  1  0
 12 11  2  0
 12  5  1  0
 12  2  1  0
 13  5  1  0
 14  8  1  0
 14 13  1  0
 15  8  1  0
 16 15  1  0
 16  5  1  0
 17  9  2  0
 17  8  1  0
 18 17  1  0
 18 19  1  0
M  CHG  2   1   1   3  -1
M  END
