
     RDKit          3D

 19 20  0  0  0  0  0  0  0  0999 V2000
   13.6310   -1.9280   21.3350 Cl  0  0  0  0  0  0  0  0  0  0  0  0
   12.4700   -1.0550   22.2980 C   0  0  0  0  0  0  0  0  0  0  0  0
   12.9150   -0.1170   23.2050 C   0  0  0  0  0  0  0  0  0  0  0  0
   11.9870    0.5060   24.0250 C   0  0  0  0  0  0  0  0  0  0  0  0
   10.6380    0.2110   23.9020 C   0  0  0  0  0  0  0  0  0  0  0  0
   11.1280   -1.3530   22.1590 C   0  0  0  0  0  0  0  0  0  0  0  0
   10.1920   -0.7000   22.9550 C   0  0  0  0  0  0  0  0  0  0  0  0
    8.7150   -0.9090   22.7140 C   0  0  0  0  0  0  0  0  0  0  0  0
    8.2170   -0.0950   21.5350 C   0  0  0  0  0  0  0  0  0  0  0  0
    8.8600    0.8500   21.0820 O   0  0  0  0  0  0  0  0  0  0  0  0
    7.0270   -0.5010   21.0310 N   0  0  0  0  0  0  0  0  0  0  0  0
    6.3610    0.1480   19.9460 C   0  0  0  0  0  0  0  0  0  0  0  0
    5.3180    1.0400   20.2200 C   0  0  0  0  0  0  0  0  0  0  0  0
    4.8660    1.3370   21.6270 C   0  0  0  0  0  0  0  0  0  0  0  0
    6.7660   -0.0810   18.6160 C   0  0  0  0  0  0  0  0  0  0  0  0
    7.8820   -1.0140   18.2540 C   0  0  0  0  0  0  0  0  0  0  0  0
    6.1600    0.5470   17.6010 N   0  0  0  0  0  0  0  0  0  0  0  0
    5.1570    1.3940   17.8690 C   0  0  0  0  0  0  0  0  0  0  0  0
    4.7120    1.6630   19.1410 C   0  0  0  0  0  0  0  0  0  0  0  0
  2  1  1  0
  3  2  2  0
  4  3  1  0
  5  4  2  0
  6  2  1  0
  7  5  1  0
  7  6  2  0
  8  7  1  0
  9  8  1  0
 10  9  2  0
 11  9  1  0
 12 11  1  0
 13 12  2  0
 14 13  1  0
 15 12  1  0
 16 15  1  0
 17 15  2  0
 18 17  1  0
 19 18  2  0
 19 13  1  0
M  END
