
     RDKit          3D

 20 22  0  0  0  0  0  0  0  0999 V2000
   13.7630   -2.7850   26.2640 C   0  0  0  0  0  0  0  0  0  0  0  0
    9.5140    0.7850   21.3000 O   0  0  0  0  0  0  0  0  0  0  0  0
   12.6070   -3.5290   26.2070 C   0  0  0  0  0  0  0  0  0  0  0  0
    9.8470   -2.7980   23.2200 O   0  0  0  0  0  0  0  0  0  0  0  0
   11.6210   -3.2130   25.2930 C   0  0  0  0  0  0  0  0  0  0  0  0
    6.0690   -4.5950   21.0570 O   0  0  0  0  0  0  0  0  0  0  0  0
   11.7790   -2.1300   24.4280 C   0  0  0  0  0  0  0  0  0  0  0  0
    5.7020   -2.2350   19.6700 O   0  0  0  0  0  0  0  0  0  0  0  0
   12.9590   -1.3910   24.4950 C   0  0  0  0  0  0  0  0  0  0  0  0
    7.3860   -0.1600   20.0460 O   0  0  0  0  0  0  0  0  0  0  0  0
   13.9390   -1.7190   25.4110 C   0  0  0  0  0  0  0  0  0  0  0  0
   10.7340   -1.7920   23.4540 C   0  0  0  0  0  0  0  0  0  0  0  0
   10.6430   -0.6060   22.8220 C   0  0  0  0  0  0  0  0  0  0  0  0
    9.6030   -0.3190   21.8780 C   0  0  0  0  0  0  0  0  0  0  0  0
    8.6660   -1.4050   21.6390 C   0  0  0  0  0  0  0  0  0  0  0  0
    7.5840   -1.3050   20.7390 C   0  0  0  0  0  0  0  0  0  0  0  0
    6.7330   -2.3700   20.5540 C   0  0  0  0  0  0  0  0  0  0  0  0
    6.9260   -3.5660   21.2620 C   0  0  0  0  0  0  0  0  0  0  0  0
    7.9760   -3.6920   22.1540 C   0  0  0  0  0  0  0  0  0  0  0  0
    8.8210   -2.6150   22.3240 C   0  0  0  0  0  0  0  0  0  0  0  0
  3  1  2  0
  5  3  1  0
  7  5  2  0
  9  7  1  0
 11  9  2  0
 11  1  1  0
 12  4  1  0
 12  7  1  0
 13 12  2  0
 14  2  2  0
 14 13  1  0
 15 14  1  0
 16 15  1  0
 16 10  1  0
 17 16  2  0
 17  8  1  0
 18 17  1  0
 18  6  1  0
 19 18  2  0
 20 15  2  0
 20 19  1  0
 20  4  1  0
M  END
