
     RDKit          3D

 25 27  0  0  0  0  0  0  0  0999 V2000
   13.4960    0.6320   23.7080 Cl  0  0  0  0  0  0  0  0  0  0  0  0
   11.8320    0.1780   23.9280 C   0  0  0  0  0  0  0  0  0  0  0  0
   11.1840   -0.4890   22.9110 C   0  0  0  0  0  0  0  0  0  0  0  0
   11.2130    0.4590   25.1310 C   0  0  0  0  0  0  0  0  0  0  0  0
    9.9030    0.0310   25.3240 C   0  0  0  0  0  0  0  0  0  0  0  0
    9.2650    0.3010   26.5320 N   0  0  0  0  0  0  0  0  0  0  0  0
    7.9080   -0.0790   26.8970 C   0  0  2  0  0  0  0  0  0  0  0  0
    6.8650    0.9850   26.5060 C   0  0  1  0  0  0  0  0  0  0  0  0
    6.5160    0.9200   25.1210 O   0  0  0  0  0  0  0  0  0  0  0  0
    5.6730    0.6270   27.3820 C   0  0  0  0  0  0  0  0  0  0  0  0
    6.2710    0.1530   28.7010 C   0  0  0  0  0  0  0  0  0  0  0  0
    7.7260   -0.2240   28.4150 C   0  0  0  0  0  0  0  0  0  0  0  0
    9.2440   -0.6540   24.3060 C   0  0  0  0  0  0  0  0  0  0  0  0
    9.8720   -0.9030   23.0920 C   0  0  0  0  0  0  0  0  0  0  0  0
    9.1180   -1.5540   21.9600 C   0  0  0  0  0  0  0  0  0  0  0  0
    8.4660   -0.5000   21.0890 C   0  0  0  0  0  0  0  0  0  0  0  0
    9.0070    0.5820   20.8580 O   0  0  0  0  0  0  0  0  0  0  0  0
    7.2670   -0.8570   20.5890 N   0  0  0  0  0  0  0  0  0  0  0  0
    6.5930   -0.1160   19.5970 C   0  0  0  0  0  0  0  0  0  0  0  0
    5.5020    0.6920   19.9510 C   0  0  0  0  0  0  0  0  0  0  0  0
    5.0430    0.8310   21.3790 C   0  0  0  0  0  0  0  0  0  0  0  0
    7.0100   -0.1340   18.2650 C   0  0  0  0  0  0  0  0  0  0  0  0
    6.4200    0.5750   17.2990 N   0  0  0  0  0  0  0  0  0  0  0  0
    5.3660    1.3240   17.6470 C   0  0  0  0  0  0  0  0  0  0  0  0
    4.8820    1.4100   18.9350 C   0  0  0  0  0  0  0  0  0  0  0  0
  2  1  1  0
  3  2  2  0
  4  2  1  0
  5  4  2  0
  6  5  1  0
  7  6  1  1
  8  7  1  0
  8  9  1  6
 10  8  1  0
 11 10  1  0
 12  7  1  0
 12 11  1  0
 13  5  1  0
 14 13  2  0
 14  3  1  0
 15 14  1  0
 16 15  1  0
 17 16  2  0
 18 16  1  0
 19 18  1  0
 20 19  2  0
 21 20  1  0
 22 19  1  0
 23 22  2  0
 24 23  1  0
 25 24  2  0
 25 20  1  0
M  END
