
     RDKit          3D

 20 22  0  0  0  0  0  0  0  0999 V2000
    8.6820    0.7730   20.7800 O   0  0  0  0  0  0  0  0  0  0  0  0
    8.2550   -0.3790   20.8220 C   0  0  2  0  0  0  0  0  0  0  0  0
    8.8940   -1.4560   21.6770 C   0  0  0  0  0  0  0  0  0  0  0  0
   10.1500   -1.0010   22.3780 C   0  0  0  0  0  0  0  0  0  0  0  0
   10.0980   -0.2000   23.5120 C   0  0  0  0  0  0  0  0  0  0  0  0
   11.2620    0.2910   24.0860 C   0  0  0  0  0  0  0  0  0  0  0  0
   12.4950   -0.0250   23.5380 C   0  0  0  0  0  0  0  0  0  0  0  0
   11.3890   -1.3460   21.8570 C   0  0  0  0  0  0  0  0  0  0  0  0
   12.5370   -0.8710   22.4480 C   0  0  2  0  0  0  0  0  0  0  0  0
   14.0710   -1.4550   21.8720 Cl  0  0  0  0  0  0  0  0  0  0  0  0
    7.2170   -0.8090   20.0500 N   0  0  0  0  0  0  0  0  0  0  0  0
    6.4340    0.0560   19.3220 C   0  0  0  0  0  0  0  0  0  0  0  0
    5.4250    0.7320   19.9440 C   0  0  0  0  0  0  0  0  0  0  0  0
    4.7960    1.4350   18.9190 N   0  0  0  0  0  0  0  0  0  0  0  0
    5.4750    1.1500   17.7640 C   0  0  0  0  0  0  0  0  0  0  0  0
    6.4820    0.3170   17.9590 N   0  0  0  0  0  0  0  0  0  0  0  0
    4.8940    0.8310   21.2550 C   0  0  0  0  0  0  0  0  0  0  0  0
    3.7810    1.5880   21.4740 C   0  0  0  0  0  0  0  0  0  0  0  0
    3.1590    2.2850   20.4110 C   0  0  0  0  0  0  0  0  0  0  0  0
    3.6600    2.2130   19.1600 C   0  0  0  0  0  0  0  0  0  0  0  0
  2  1  1  6
  3  2  1  0
  4  3  1  0
  5  4  1  0
  6  5  1  0
  7  6  1  0
  8  4  1  0
  9  8  1  0
  9  7  1  0
  9 10  1  1
 11  2  1  0
 12 11  1  0
 13 12  1  0
 14 13  1  0
 15 14  1  0
 16 15  1  0
 16 12  1  0
 17 13  1  0
 18 17  1  0
 19 18  1  0
 20 19  1  0
 20 14  1  0
M  END
$$$$
