
     RDKit          3D

 18 19  0  0  0  0  0  0  0  0999 V2000
   14.4550   -1.8900   20.5250 N   0  0  0  0  0  0  0  0  0  0  0  0
   13.7190   -1.4490   21.2790 C   0  0  0  0  0  0  0  0  0  0  0  0
   12.8220   -0.8860   22.2560 C   0  0  0  0  0  0  0  0  0  0  0  0
   13.3240   -0.1480   23.3250 C   0  0  0  0  0  0  0  0  0  0  0  0
   12.4500    0.4340   24.2280 C   0  0  0  0  0  0  0  0  0  0  0  0
   11.0820    0.2780   24.0680 C   0  0  0  0  0  0  0  0  0  0  0  0
   11.4470   -1.0480   22.1030 C   0  0  0  0  0  0  0  0  0  0  0  0
   10.5670   -0.4600   23.0080 C   0  0  0  0  0  0  0  0  0  0  0  0
    9.0760   -0.6020   22.8160 C   0  0  0  0  0  0  0  0  0  0  0  0
    8.5910    0.1040   21.5650 C   0  0  0  0  0  0  0  0  0  0  0  0
    9.1990    1.0530   21.0700 O   0  0  0  0  0  0  0  0  0  0  0  0
    7.4380   -0.3870   21.0640 N   0  0  0  0  0  0  0  0  0  0  0  0
    6.7110    0.1240   19.9710 C   0  0  0  0  0  0  0  0  0  0  0  0
    7.1920   -0.0010   18.6680 C   0  0  0  0  0  0  0  0  0  0  0  0
    6.6050    0.5650   17.6070 N   0  0  0  0  0  0  0  0  0  0  0  0
    5.4900    1.2730   17.8240 C   0  0  0  0  0  0  0  0  0  0  0  0
    4.9250    1.4450   19.0770 C   0  0  0  0  0  0  0  0  0  0  0  0
    5.5460    0.8570   20.1650 C   0  0  0  0  0  0  0  0  0  0  0  0
  2  1  3  0
  3  2  1  0
  4  3  2  0
  5  4  1  0
  6  5  2  0
  7  3  1  0
  8  7  2  0
  8  6  1  0
  9  8  1  0
 10  9  1  0
 11 10  2  0
 12 10  1  0
 13 12  1  0
 14 13  2  0
 15 14  1  0
 16 15  2  0
 17 16  1  0
 18 17  2  0
 18 13  1  0
M  END
