
     RDKit          3D

  9 10  0  0  0  0  0  0  0  0999 V2000
    8.6830   -3.6180   20.3500 O   0  0  0  0  0  0  0  0  0  0  0  0
    8.1700   -1.7410   22.5490 S   0  0  0  0  0  0  0  0  0  0  0  0
    7.5270   -3.3980   22.4480 C   0  0  0  0  0  0  0  0  0  0  0  0
    6.6980   -3.9020   23.4650 C   0  0  0  0  0  0  0  0  0  0  0  0
    6.2130   -5.2140   23.3490 C   0  0  0  0  0  0  0  0  0  0  0  0
    6.5820   -5.9630   22.2180 C   0  0  0  0  0  0  0  0  0  0  0  0
    7.4050   -5.4000   21.2530 C   0  0  0  0  0  0  0  0  0  0  0  0
    7.8630   -4.1260   21.3890 N   0  0  0  0  0  0  0  0  0  0  0  0
    9.2650   -1.7050   20.7930 Zn  0  0  0  0  0  2  0  0  0  0  0  0
  3  2  1  0
  4  3  1  0
  5  4  1  0
  6  5  1  0
  7  6  1  0
  8  7  1  0
  8  1  1  0
  8  3  1  0
  9  1  1  0
  9  2  1  0
M  END
