
     RDKit          3D

 37 39  0  0  0  0  0  0  0  0999 V2000
    5.4720   -4.2050   19.5170 O   0  0  0  0  0  0  0  0  0  0  0  0
    6.3040   -4.2920   20.3370 C   0  0  0  0  0  0  0  0  0  0  0  0
    7.5710   -3.5290   20.4560 C   0  0  2  0  0  0  0  0  0  0  0  0
    8.3890   -4.2260   21.2980 O   0  0  0  0  0  0  0  0  0  0  0  0
    7.4360   -2.0440   20.7560 C   0  0  2  0  0  0  0  0  0  0  0  0
    6.5970   -1.1960   19.8110 C   0  0  0  0  0  0  0  0  0  0  0  0
    6.1480    0.0040   20.6940 C   0  0  1  0  0  0  0  0  0  0  0  0
    5.0910    0.8530   20.0880 C   0  0  0  0  0  0  0  0  0  0  0  0
    4.5590    1.1230   21.5140 C   0  0  0  0  0  0  0  0  0  0  0  0
    5.2630   -0.1540   21.9530 C   0  0  0  0  0  0  0  0  0  0  0  0
    8.7670   -1.5200   20.9200 N   0  0  0  0  0  0  0  0  0  0  0  0
    9.1270   -0.9770   22.1750 C   0  0  0  0  0  0  0  0  0  0  0  0
   10.5010   -0.4380   22.2770 C   0  0  2  0  0  0  0  0  0  0  0  0
   11.4320   -1.2290   23.0700 C   0  0  2  0  0  0  0  0  0  0  0  0
   11.5810   -0.5570   24.4420 C   0  0  1  0  0  0  0  0  0  0  0  0
   12.8130   -0.8390   23.5800 C   0  0  2  0  0  0  0  0  0  0  0  0
   13.4220    0.3540   22.8420 C   0  0  0  0  0  0  0  0  0  0  0  0
   13.7580   -1.9740   23.9580 C   0  0  0  0  0  0  0  0  0  0  0  0
   10.7700    0.7120   24.3880 C   0  0  0  0  0  0  0  0  0  0  0  0
   10.3690    0.8460   23.0260 N   0  0  0  0  0  0  0  0  0  0  0  0
    9.9090    2.0370   22.4490 C   0  0  0  0  0  0  0  0  0  0  0  0
    9.7400    3.2690   23.3100 C   0  0  2  0  0  0  0  0  0  0  0  0
    8.2410    3.5380   23.5510 C   0  0  2  0  0  0  0  0  0  0  0  0
    7.5640    2.2980   24.1760 C   0  0  0  0  0  0  0  0  0  0  0  0
    7.4520    3.8920   22.2630 C   0  0  0  0  0  0  0  0  0  0  0  0
    8.1470    4.7180   24.5580 C   0  0  0  0  0  0  0  0  0  0  0  0
   10.4160    4.3320   22.6640 N   0  0  0  0  0  0  0  0  0  0  0  0
   11.4510    5.0020   23.3220 C   0  0  0  0  0  0  0  0  0  0  0  0
   11.9930    6.0400   22.5610 N   0  0  0  0  0  0  0  0  0  0  0  0
   13.1910    6.8170   22.9390 C   0  0  1  0  0  0  0  0  0  0  0  0
   14.3500    5.7560   22.8270 C   0  0  0  0  0  0  0  0  0  0  0  0
   13.2950    7.8930   21.8600 C   0  0  0  0  0  0  0  0  0  0  0  0
   13.1600    7.3810   24.3380 C   0  0  0  0  0  0  0  0  0  0  0  0
   11.7230    4.7780   24.4680 O   0  0  0  0  0  0  0  0  0  0  0  0
    9.5910    1.9830   21.2420 O   0  0  0  0  0  0  0  0  0  0  0  0
    8.3930   -1.0020   23.1660 O   0  0  0  0  0  0  0  0  0  0  0  0
    6.0270   -5.1270   21.4810 N   0  0  0  0  0  0  0  0  0  0  0  0
  2  1  2  0
  3  2  1  0
  3  4  1  1
  5  3  1  0
  5  6  1  6
  7  6  1  6
  8  7  1  0
  9  8  1  0
 10  9  1  0
 10  7  1  0
 11  5  1  0
 12 11  1  0
 13 12  1  1
 14 13  1  6
 15 14  1  0
 16 15  1  0
 16 14  1  0
 16 17  1  6
 18 16  1  0
 15 19  1  6
 20 19  1  0
 20 13  1  0
 21 20  1  0
 22 21  1  0
 23 22  1  0
 23 24  1  1
 25 23  1  0
 26 23  1  0
 22 27  1  6
 28 27  1  0
 29 28  1  0
 30 29  1  0
 30 31  1  1
 32 30  1  0
 33 30  1  0
 34 28  2  0
 35 21  2  0
 36 12  2  0
 37  2  1  0
M  END
