
     RDKit          3D

 18 19  0  0  0  0  0  0  0  0999 V2000
   11.0890    0.3540   23.6740 C   0  0  0  0  0  0  0  0  0  0  0  0
    6.5830    0.5850   17.3890 N   0  0  0  0  0  0  0  0  0  0  0  0
   11.4860   -1.1650   21.9000 C   0  0  0  0  0  0  0  0  0  0  0  0
   12.3940    0.6120   23.8370 N   0  0  0  0  0  0  0  0  0  0  0  0
    5.5780    0.8180   20.0050 C   0  0  0  0  0  0  0  0  0  0  0  0
   12.8320   -0.9220   22.0650 C   0  0  0  0  0  0  0  0  0  0  0  0
    5.0600    1.0110   21.4070 C   0  0  0  0  0  0  0  0  0  0  0  0
   10.5780   -0.5090   22.7200 C   0  0  0  0  0  0  0  0  0  0  0  0
    4.9440    1.4250   18.9260 C   0  0  0  0  0  0  0  0  0  0  0  0
    8.5730   -0.0050   21.3130 C   0  0  0  0  0  0  0  0  0  0  0  0
    7.4440   -0.5270   20.7990 N   0  0  0  0  0  0  0  0  0  0  0  0
    9.1390    0.9730   20.8400 O   0  0  0  0  0  0  0  0  0  0  0  0
    6.7370    0.0660   19.7330 C   0  0  0  0  0  0  0  0  0  0  0  0
    9.0900   -0.7060   22.5540 C   0  0  0  0  0  0  0  0  0  0  0  0
    7.1940   -0.0180   18.4160 C   0  0  0  0  0  0  0  0  0  0  0  0
   13.2580   -0.0090   23.0260 C   0  0  0  0  0  0  0  0  0  0  0  0
    5.4700    1.2810   17.6560 C   0  0  0  0  0  0  0  0  0  0  0  0
   13.9820   -1.8490   21.1430 Cl  0  0  0  0  0  0  0  0  0  0  0  0
  4  1  2  0
  6  3  1  0
  7  5  1  0
  8  3  2  0
  8  1  1  0
  9  5  1  0
 11 10  1  0
 12 10  2  0
 13 11  1  0
 13  5  2  0
 14 10  1  0
 14  8  1  0
 15 13  1  0
 15  2  2  0
 16  6  2  0
 16  4  1  0
 17  9  2  0
 17  2  1  0
 18  6  1  0
M  END
