
     RDKit          3D

 45 46  0  0  0  0  0  0  0  0999 V2000
    6.6310   -7.3530   23.9720 C   0  0  0  0  0  0  0  0  0  0  0  0
    5.9390   -6.4640   22.9300 C   0  0  0  0  0  0  0  0  0  0  0  0
    6.9920   -5.6990   22.4240 O   0  0  0  0  0  0  0  0  0  0  0  0
    6.8330   -5.0910   21.1940 C   0  0  0  0  0  0  0  0  0  0  0  0
    6.1140   -5.5230   20.3600 O   0  0  0  0  0  0  0  0  0  0  0  0
    7.7170   -3.8850   21.0690 C   0  0  0  0  0  0  0  0  0  0  0  0
    7.6410   -3.0650   19.7930 C   0  0  0  0  0  0  0  0  0  0  0  0
    7.4050   -1.6110   20.2120 C   0  0  2  0  0  0  0  0  0  0  0  0
    7.0140   -0.6900   19.0410 C   0  0  0  0  0  0  0  0  0  0  0  0
    6.7760    0.6970   19.4330 C   0  0  2  0  0  0  0  0  0  0  0  0
    5.5860    0.8130   20.3870 C   0  0  0  0  0  0  0  0  0  0  0  0
    5.0440    2.0370   20.1240 C   0  0  0  0  0  0  0  0  0  0  0  0
    5.3100    2.3040   18.5980 N   0  0  0  0  0  0  0  0  0  0  0  0
    6.3290    1.5390   18.1640 C   0  0  0  0  0  0  0  0  0  0  0  0
    6.7990    1.5140   17.0700 O   0  0  0  0  0  0  0  0  0  0  0  0
    8.6990   -1.1960   20.7140 N   0  0  0  0  0  0  0  0  0  0  0  0
    8.9350   -0.6890   22.0510 C   0  0  0  0  0  0  0  0  0  0  0  0
    8.0350   -0.5870   22.8320 O   0  0  0  0  0  0  0  0  0  0  0  0
   10.3900   -0.2940   22.3720 C   0  0  2  0  0  0  0  0  0  0  0  0
   11.0830   -1.3120   23.2560 C   0  0  0  0  0  0  0  0  0  0  0  0
   12.6150   -1.3720   23.1610 C   0  0  2  0  0  0  0  0  0  0  0  0
   13.1720   -2.0510   24.4050 C   0  0  0  0  0  0  0  0  0  0  0  0
   13.3250   -0.0390   22.9400 C   0  0  0  0  0  0  0  0  0  0  0  0
   10.3250    0.9750   23.0650 N   0  0  0  0  0  0  0  0  0  0  0  0
    9.9700    2.2110   22.3450 C   0  0  0  0  0  0  0  0  0  0  0  0
    9.7350    2.1890   21.2020 O   0  0  0  0  0  0  0  0  0  0  0  0
    9.9030    3.5460   23.1270 C   0  0  1  0  0  0  0  0  0  0  0  0
   10.9620    4.4370   22.6210 N   0  0  0  0  0  0  0  0  0  0  0  0
   12.0390    4.7310   23.5450 C   0  0  0  0  0  0  0  0  0  0  0  0
   11.8170    4.5560   24.6810 O   0  0  0  0  0  0  0  0  0  0  0  0
   13.3390    5.0710   23.1220 O   0  0  0  0  0  0  0  0  0  0  0  0
   13.9590    6.3410   23.1690 C   0  0  0  0  0  0  0  0  0  0  0  0
   13.5320    7.2730   24.3050 C   0  0  0  0  0  0  0  0  0  0  0  0
   13.3260    8.6260   24.0130 C   0  0  0  0  0  0  0  0  0  0  0  0
   12.9390    9.5060   25.0170 C   0  0  0  0  0  0  0  0  0  0  0  0
   12.7770    9.0500   26.3270 C   0  0  0  0  0  0  0  0  0  0  0  0
   12.9940    7.7070   26.6250 C   0  0  0  0  0  0  0  0  0  0  0  0
   13.3840    6.8240   25.6190 C   0  0  0  0  0  0  0  0  0  0  0  0
    8.5550    4.2410   22.9990 C   0  0  1  0  0  0  0  0  0  0  0  0
    7.4350    3.2790   23.4350 C   0  0  0  0  0  0  0  0  0  0  0  0
    8.5980    5.3880   23.8040 O   0  0  0  0  0  0  0  0  0  0  0  0
    8.1070    6.6100   23.3100 C   0  0  1  0  0  0  0  0  0  0  0  0
    7.9460    7.6440   24.4240 C   0  0  0  0  0  0  0  0  0  0  0  0
    9.1370    7.1360   22.3270 C   0  0  0  0  0  0  0  0  0  0  0  0
    6.7010    6.4890   22.7040 C   0  0  0  0  0  0  0  0  0  0  0  0
  2  1  1  0
  3  2  1  0
  4  3  1  0
  5  4  2  0
  6  4  1  0
  7  6  1  0
  8  7  1  6
  9  8  1  0
 10  9  1  6
 11 10  1  0
 12 11  1  0
 13 12  1  0
 14 13  1  0
 14 10  1  0
 15 14  2  0
 16  8  1  0
 17 16  1  0
 18 17  2  0
 19 17  1  0
 19 20  1  1
 21 20  1  0
 21 22  1  1
 23 21  1  0
 24 19  1  0
 25 24  1  0
 26 25  2  0
 27 25  1  0
 27 28  1  6
 29 28  1  0
 30 29  2  0
 31 29  1  0
 32 31  1  0
 33 32  1  0
 34 33  2  0
 35 34  1  0
 36 35  2  0
 37 36  1  0
 38 37  2  0
 38 33  1  0
 39 27  1  0
 39 40  1  1
 41 39  1  0
 42 41  1  0
 42 43  1  1
 44 42  1  0
 45 42  1  0
M  END
$$$$
