
     RDKit          3D

 23 24  0  0  0  0  0  0  0  0999 V2000
    6.7080   -5.3480   21.8770 S   0  0  2  0  0  0  0  0  0  0  0  0
    7.6150   -4.0290   22.1100 N   0  0  0  0  0  0  0  0  0  0  0  0
    6.7820    0.5380   17.6120 N   0  0  0  0  0  0  0  0  0  0  0  0
    7.8450   -3.5240   23.4730 C   0  0  0  0  0  0  0  0  0  0  0  0
   12.0020   -1.3060   21.9810 C   0  0  0  0  0  0  0  0  0  0  0  0
    6.3180   -5.3460   20.4990 O   0  0  0  0  0  0  0  0  0  0  0  0
    5.6650    1.0590   18.1380 C   0  0  0  0  0  0  0  0  0  0  0  0
    9.1350   -2.7300   23.6540 C   0  0  0  0  0  0  0  0  0  0  0  0
    6.2930    0.4450   20.3500 C   0  0  0  0  0  0  0  0  0  0  0  0
    7.4570   -0.1140   19.8310 C   0  0  0  0  0  0  0  0  0  0  0  0
    8.4740   -0.9550   21.9670 C   0  0  0  0  0  0  0  0  0  0  0  0
   10.8480   -1.1020   22.7320 C   0  0  0  0  0  0  0  0  0  0  0  0
   13.1500    0.4050   23.2120 C   0  0  0  0  0  0  0  0  0  0  0  0
    7.6520   -0.0380   18.4520 C   0  0  0  0  0  0  0  0  0  0  0  0
   13.1440   -0.5560   22.2170 C   0  0  0  0  0  0  0  0  0  0  0  0
   12.0140    0.6090   23.9740 C   0  0  0  0  0  0  0  0  0  0  0  0
    5.2670   -5.1760   22.8580 C   0  0  0  0  0  0  0  0  0  0  0  0
    8.4370   -0.7680   20.6230 N   0  0  0  0  0  0  0  0  0  0  0  0
    7.4570   -6.4580   22.3790 O   0  0  0  0  0  0  0  0  0  0  0  0
    7.6860   -0.4280   22.7510 O   0  0  0  0  0  0  0  0  0  0  0  0
    5.3800    1.0370   19.4920 C   0  0  0  0  0  0  0  0  0  0  0  0
    9.5820   -1.8970   22.4400 C   0  0  1  0  0  0  0  0  0  0  0  0
   10.8710   -0.1440   23.7380 C   0  0  0  0  0  0  0  0  0  0  0  0
  2  1  1  0
  4  2  1  0
  6  1  1  0
  7  3  1  0
  8  4  1  0
 10  9  1  0
 12  5  1  0
 14 10  1  0
 14  3  1  0
 15 13  1  0
 15  5  1  0
 16 13  1  0
  1 17  1  1
 18 10  1  0
 18 11  1  0
 19  1  1  0
 20 11  1  0
 21  9  1  0
 21  7  1  0
 22 12  1  0
 22 11  1  0
 22  8  1  1
 23 12  1  0
 23 16  1  0
M  END
$$$$
