
     RDKit          3D

 21 23  0  0  0  0  0  0  0  0999 V2000
    6.9530   -2.2370   20.8200 N   0  0  0  0  0  0  0  0  0  0  0  0
    8.4150   -3.0910   19.1570 C   0  0  0  0  0  0  0  0  0  0  0  0
    6.0530   -3.4430   19.1190 O   0  0  0  0  0  0  0  0  0  0  0  0
    7.0220   -2.9400   19.6770 C   0  0  0  0  0  0  0  0  0  0  0  0
   12.0770    1.9540   24.6510 C   0  0  0  0  0  0  0  0  0  0  0  0
   11.0660    2.2190   25.5160 C   0  0  0  0  0  0  0  0  0  0  0  0
   10.0730    1.2630   25.7660 C   0  0  0  0  0  0  0  0  0  0  0  0
   10.0960    0.0660   25.1170 C   0  0  0  0  0  0  0  0  0  0  0  0
   11.1230   -0.2500   24.1890 C   0  0  0  0  0  0  0  0  0  0  0  0
    8.0500   -3.3600   22.7290 C   0  0  0  0  0  0  0  0  0  0  0  0
    6.7440   -2.9860   22.0610 C   0  0  0  0  0  0  0  0  0  0  0  0
    7.9080   -1.1320   20.9550 C   0  0  0  0  0  0  0  0  0  0  0  0
    9.1730   -1.5280   21.6910 C   0  0  0  0  0  0  0  0  0  0  0  0
   10.1030   -2.5210   23.6880 C   0  0  0  0  0  0  0  0  0  0  0  0
   11.1890   -1.4900   23.4920 C   0  0  0  0  0  0  0  0  0  0  0  0
   12.2090   -1.7000   22.5990 C   0  0  0  0  0  0  0  0  0  0  0  0
   13.2130   -0.7410   22.3830 C   0  0  0  0  0  0  0  0  0  0  0  0
   13.1770    0.4400   23.0460 C   0  0  0  0  0  0  0  0  0  0  0  0
   12.1350    0.7230   23.9600 C   0  0  0  0  0  0  0  0  0  0  0  0
    8.8710   -2.1760   22.9690 N   0  0  0  0  0  0  0  0  0  0  0  0
    9.1120   -3.3140   17.5190 S   0  0  0  0  0  0  0  0  0  0  0  0
  4  3  2  0
  4  2  1  0
  4  1  1  0
  6  5  2  0
  7  6  1  0
  8  7  2  0
  9  8  1  0
 11  1  1  0
 11 10  1  0
 12  1  1  0
 13 12  1  0
 15 14  1  0
 15  9  2  0
 16 15  1  0
 17 16  2  0
 18 17  1  0
 19 18  2  0
 19  9  1  0
 19  5  1  0
 20 13  1  0
 20 14  1  0
 20 10  1  0
  2 21  1  0
M  END
