
     RDKit          3D

 20 22  0  0  0  0  0  0  0  0999 V2000
    8.9320    0.8300   21.1000 O   0  0  0  0  0  0  0  0  0  0  0  0
    8.3740   -0.2200   21.4140 C   0  0  0  0  0  0  0  0  0  0  0  0
    8.8620   -1.0640   22.5790 C   0  0  0  0  0  0  0  0  0  0  0  0
   10.3240   -0.7940   22.8570 C   0  0  0  0  0  0  0  0  0  0  0  0
   10.7100    0.1370   23.8140 C   0  0  0  0  0  0  0  0  0  0  0  0
   12.0450    0.4810   23.9710 C   0  0  0  0  0  0  0  0  0  0  0  0
   13.0150   -0.1030   23.1720 C   0  0  0  0  0  0  0  0  0  0  0  0
   11.3040   -1.4040   22.0830 C   0  0  0  0  0  0  0  0  0  0  0  0
   12.6280   -1.0490   22.2490 C   0  0  0  0  0  0  0  0  0  0  0  0
   13.8420   -1.8460   21.2810 Cl  0  0  0  0  0  0  0  0  0  0  0  0
    7.3000   -0.7130   20.7650 N   0  0  0  0  0  0  0  0  0  0  0  0
    6.6510   -0.0460   19.6990 C   0  0  0  0  0  0  0  0  0  0  0  0
    5.5130    0.7240   19.9510 C   0  0  0  0  0  0  0  0  0  0  0  0
    4.8700    1.0170   21.1270 N   0  0  0  0  0  0  0  0  0  0  0  0
    3.8690    1.8650   20.8070 C   0  0  0  0  0  0  0  0  0  0  0  0
    3.8060    2.1560   19.5210 N   0  0  0  0  0  0  0  0  0  0  0  0
    4.8550    1.4370   18.9440 C   0  0  0  0  0  0  0  0  0  0  0  0
    5.3980    1.3150   17.6730 C   0  0  0  0  0  0  0  0  0  0  0  0
    6.4930    0.5990   17.3850 N   0  0  0  0  0  0  0  0  0  0  0  0
    7.0960   -0.0590   18.3830 C   0  0  0  0  0  0  0  0  0  0  0  0
  2  1  2  0
  3  2  1  0
  4  3  1  0
  5  4  2  0
  6  5  1  0
  7  6  2  0
  8  4  1  0
  9  8  2  0
  9  7  1  0
 10  9  1  0
 11  2  1  0
 12 11  1  0
 13 12  2  0
 14 13  1  0
 15 14  1  0
 16 15  2  0
 17 16  1  0
 17 13  1  0
 18 17  2  0
 19 18  1  0
 20 19  2  0
 20 12  1  0
M  END
