
     RDKit          3D

 20 22  0  0  0  0  0  0  0  0999 V2000
   13.7910   -2.7030   25.9880 C   0  0  0  0  0  0  0  0  0  0  0  0
    9.4470    1.1100   21.2750 O   0  0  0  0  0  0  0  0  0  0  0  0
   12.6660   -3.4820   25.8480 C   0  0  0  0  0  0  0  0  0  0  0  0
    9.8730   -2.5740   22.9700 O   0  0  0  0  0  0  0  0  0  0  0  0
   11.6760   -3.1170   24.9570 C   0  0  0  0  0  0  0  0  0  0  0  0
    6.1170   -4.3240   20.7390 O   0  0  0  0  0  0  0  0  0  0  0  0
   11.7980   -1.9520   24.2020 C   0  0  0  0  0  0  0  0  0  0  0  0
    5.6850   -1.8860   19.4960 O   0  0  0  0  0  0  0  0  0  0  0  0
   12.9490   -1.1810   24.3470 C   0  0  0  0  0  0  0  0  0  0  0  0
    7.3260    0.1950   19.9840 O   0  0  0  0  0  0  0  0  0  0  0  0
   13.9340   -1.5550   25.2420 C   0  0  0  0  0  0  0  0  0  0  0  0
   10.7420   -1.5660   23.2560 C   0  0  0  0  0  0  0  0  0  0  0  0
   10.6210   -0.3450   22.7010 C   0  0  0  0  0  0  0  0  0  0  0  0
    9.5650   -0.0230   21.7850 C   0  0  0  0  0  0  0  0  0  0  0  0
    8.6500   -1.1140   21.4890 C   0  0  0  0  0  0  0  0  0  0  0  0
    7.5560   -0.9840   20.6050 C   0  0  0  0  0  0  0  0  0  0  0  0
    6.7270   -2.0550   20.3620 C   0  0  0  0  0  0  0  0  0  0  0  0
    6.9490   -3.2870   20.9970 C   0  0  0  0  0  0  0  0  0  0  0  0
    8.0120   -3.4420   21.8700 C   0  0  0  0  0  0  0  0  0  0  0  0
    8.8350   -2.3580   22.0950 C   0  0  0  0  0  0  0  0  0  0  0  0
  3  1  2  0
  5  3  1  0
  7  5  2  0
  9  7  1  0
 11  9  2  0
 11  1  1  0
 12  4  1  0
 12  7  1  0
 13 12  2  0
 14  2  2  0
 14 13  1  0
 15 14  1  0
 16 15  1  0
 16 10  1  0
 17 16  2  0
 17  8  1  0
 18 17  1  0
 18  6  1  0
 19 18  2  0
 20 15  2  0
 20 19  1  0
 20  4  1  0
M  END
