
     RDKit          3D

 13 13  0  0  0  0  0  0  0  0999 V2000
    6.3030   -5.2040   24.2960 N   0  0  0  0  0  0  0  0  0  0  0  0
    4.9940   -6.2140   26.0930 C   0  0  0  0  0  0  0  0  0  0  0  0
    7.2850   -5.6440   26.2620 O   0  0  0  0  0  0  0  0  0  0  0  0
    6.2800   -5.6650   25.5610 C   0  0  0  0  0  0  0  0  0  0  0  0
    5.3350   -5.5830   23.2610 C   0  0  0  0  0  0  0  0  0  0  0  0
    6.0340   -6.0160   21.9890 C   0  0  0  0  0  0  0  0  0  0  0  0
    7.9650   -4.6780   22.5910 C   0  0  0  0  0  0  0  0  0  0  0  0
    7.2720   -4.2080   23.8470 C   0  0  0  0  0  0  0  0  0  0  0  0
    7.0030   -4.3330   20.3850 C   0  0  0  0  0  0  0  0  0  0  0  0
    8.3030   -3.6430   20.0820 C   0  0  0  0  0  0  0  0  0  0  0  0
    6.9740   -4.9860   21.5620 N   0  0  0  0  0  0  0  0  0  0  0  0
    6.0600   -4.2980   19.6060 O   0  0  0  0  0  0  0  0  0  0  0  0
    8.6190   -3.3370   18.3390 S   0  0  0  0  0  0  0  0  0  0  0  0
  4  2  1  0
  4  3  2  0
  4  1  1  0
  5  1  1  0
  6  5  1  0
  8  7  1  0
  8  1  1  0
 10  9  1  0
 11  6  1  0
 11  9  1  0
 11  7  1  0
 12  9  2  0
 10 13  1  0
M  END
