
     RDKit          3D

 34 36  0  0  0  0  0  0  0  0999 V2000
    7.6830   -1.0200   21.7440 N   0  0  0  0  0  0  0  0  0  0  0  0
    7.0240   -4.3310   20.0770 C   0  0  0  0  0  0  0  0  0  0  0  0
    5.7470   -2.0600   21.2120 O   0  0  0  0  0  0  0  0  0  0  0  0
    7.6900   -3.4500   21.1270 C   0  0  0  0  0  0  0  0  0  0  0  0
    7.8810    2.4030   22.6050 N   0  0  0  0  0  0  0  0  0  0  0  0
    9.3020    1.4680   21.0830 O   0  0  0  0  0  0  0  0  0  0  0  0
    6.9580   -2.1500   21.3430 C   0  0  0  0  0  0  0  0  0  0  0  0
    6.6420    0.4580   17.7050 N   0  0  0  0  0  0  0  0  0  0  0  0
   10.9000    6.7520   24.2670 O   0  0  0  0  0  0  0  0  0  0  0  0
    7.2010    0.3560   21.4550 C   0  0  1  0  0  0  0  0  0  0  0  0
    8.7630   -1.2650   23.9040 N   0  0  0  0  0  0  0  0  0  0  0  0
   10.1130   -1.3490   24.3460 O   0  0  0  0  0  0  0  0  0  0  0  0
    8.2440    1.4580   21.7050 C   0  0  0  0  0  0  0  0  0  0  0  0
    8.6640    3.4990   23.0380 C   0  0  0  0  0  0  0  0  0  0  0  0
    9.7250    3.2620   23.9330 C   0  0  0  0  0  0  0  0  0  0  0  0
    9.9870    1.8980   24.5210 C   0  0  0  0  0  0  0  0  0  0  0  0
   10.4990    4.3430   24.3390 C   0  0  0  0  0  0  0  0  0  0  0  0
   10.2140    5.6260   23.8950 C   0  0  0  0  0  0  0  0  0  0  0  0
   11.9870    6.6290   25.1890 C   0  0  0  0  0  0  0  0  0  0  0  0
    9.1640    5.8500   23.0190 C   0  0  0  0  0  0  0  0  0  0  0  0
    8.3850    4.7890   22.5900 C   0  0  0  0  0  0  0  0  0  0  0  0
    6.5120    0.5250   20.1120 C   0  0  0  0  0  0  0  0  0  0  0  0
    7.1280    0.1690   18.9190 C   0  0  0  0  0  0  0  0  0  0  0  0
    5.4830    1.1230   17.6530 C   0  0  0  0  0  0  0  0  0  0  0  0
    4.7770    1.5100   18.7770 C   0  0  0  0  0  0  0  0  0  0  0  0
    5.3020    1.1970   20.0160 C   0  0  0  0  0  0  0  0  0  0  0  0
    8.8560   -1.1920   22.5530 C   0  0  0  0  0  0  0  0  0  0  0  0
   10.9270   -1.3260   23.2710 C   0  0  0  0  0  0  0  0  0  0  0  0
   10.2180   -1.2400   22.1380 C   0  0  0  0  0  0  0  0  0  0  0  0
   12.4300   -1.3720   23.4680 C   0  0  0  0  0  0  0  0  0  0  0  0
   12.9310   -0.0110   23.9480 C   0  0  0  0  0  0  0  0  0  0  0  0
   13.1120   -1.7260   22.1450 C   0  0  0  0  0  0  0  0  0  0  0  0
   12.7960   -2.4160   24.5220 C   0  0  0  0  0  0  0  0  0  0  0  0
    8.2560   -3.6970   18.9680 S   0  0  0  0  0  0  0  0  0  0  0  0
  4  2  1  0
  7  4  1  0
  7  3  2  0
  7  1  1  0
 10  1  1  0
 12 11  1  0
 10 13  1  6
 13  6  2  0
 13  5  1  0
 14  5  1  0
 15 14  2  0
 16 15  1  0
 17 15  1  0
 18 17  2  0
 18  9  1  0
 19  9  1  0
 20 18  1  0
 21 14  1  0
 21 20  2  0
 22 10  1  0
 23 22  1  0
 23  8  2  0
 24  8  1  0
 25 24  2  0
 26 25  1  0
 26 22  2  0
 27  1  1  0
 27 11  2  0
 28 12  1  0
 29 27  1  0
 29 28  2  0
 30 28  1  0
 30 31  1  0
 32 30  1  0
 33 30  1  0
  2 34  1  0
M  END
