
     RDKit          3D

 19 20  0  0  0  0  0  0  0  0999 V2000
   10.6630   -4.4420   25.8720 C   0  0  0  0  0  0  0  0  0  0  0  0
    9.5630   -4.4800   24.8760 C   0  0  0  0  0  0  0  0  0  0  0  0
    8.8830   -5.6570   24.6420 C   0  0  0  0  0  0  0  0  0  0  0  0
    7.8650   -5.7260   23.7170 C   0  0  0  0  0  0  0  0  0  0  0  0
    7.5090   -4.5860   23.0020 C   0  0  0  0  0  0  0  0  0  0  0  0
    6.6730   -4.3500   20.7430 C   0  0  0  0  0  0  0  0  0  0  0  0
    7.9600   -3.6200   20.4340 C   0  0  0  0  0  0  0  0  0  0  0  0
    5.1240   -5.0540   22.5270 C   0  0  2  0  0  0  0  0  0  0  0  0
    4.9180   -4.5550   23.9520 C   0  0  0  0  0  0  0  0  0  0  0  0
    4.2940   -5.4010   24.7620 C   0  0  0  0  0  0  0  0  0  0  0  0
    4.9650   -6.5800   22.5520 C   0  0  0  0  0  0  0  0  0  0  0  0
    8.1790   -3.3850   23.2330 C   0  0  0  0  0  0  0  0  0  0  0  0
    9.2050   -3.3510   24.1550 C   0  0  0  0  0  0  0  0  0  0  0  0
    6.4420   -4.6530   22.0520 N   0  0  0  0  0  0  0  0  0  0  0  0
    5.8730   -4.6400   19.8650 O   0  0  0  0  0  0  0  0  0  0  0  0
    2.5610   -6.9890   23.5880 O   0  0  0  0  0  0  0  0  0  0  0  0
    4.4780   -8.0080   24.7460 O   0  0  0  0  0  0  0  0  0  0  0  0
    3.9460   -6.9190   23.9730 S   0  0  2  0  0  0  0  0  0  0  0  0
    8.2400   -3.3230   18.6680 S   0  0  0  0  0  0  0  0  0  0  0  0
  2  1  1  0
  3  2  2  0
  4  3  1  0
  5  4  2  0
  7  6  1  0
  9  8  1  0
 10  9  2  0
 11  8  1  0
 12  5  1  0
 13 12  2  0
 13  2  1  0
  8 14  1  1
 14  6  1  0
 14  5  1  0
 15  6  2  0
 18 17  2  0
 18 16  2  0
 18 11  1  6
 18 10  1  0
  7 19  1  0
M  END
