
     RDKit          3D

 24 27  0  0  0  0  0  0  0  0999 V2000
    5.6250   -2.8010   20.6870 O   0  0  0  0  0  0  0  0  0  0  0  0
    6.3130   -1.7980   20.7930 C   0  0  0  0  0  0  0  0  0  0  0  0
    6.1130   -0.6550   19.8400 C   0  0  0  0  0  0  0  0  0  0  0  0
    5.1530    0.3600   20.1090 C   0  0  0  0  0  0  0  0  0  0  0  0
    4.5100    0.5370   21.3620 C   0  0  0  0  0  0  0  0  0  0  0  0
    3.5900    1.5300   21.5430 C   0  0  0  0  0  0  0  0  0  0  0  0
    3.2740    2.3960   20.5110 C   0  0  0  0  0  0  0  0  0  0  0  0
    3.8740    2.2780   19.2910 C   0  0  0  0  0  0  0  0  0  0  0  0
    4.8260    1.2560   19.0550 C   0  0  0  0  0  0  0  0  0  0  0  0
    5.4860    1.0830   17.8130 C   0  0  0  0  0  0  0  0  0  0  0  0
    6.3890    0.1410   17.5730 N   0  0  0  0  0  0  0  0  0  0  0  0
    6.6770   -0.7080   18.5670 C   0  0  0  0  0  0  0  0  0  0  0  0
    7.2250   -1.6470   21.7800 N   0  0  0  0  0  0  0  0  0  0  0  0
    8.0890   -0.4650   21.9170 C   0  0  0  0  0  0  0  0  0  0  0  0
    9.5480   -0.8890   21.9910 C   0  0  0  0  0  0  0  0  0  0  0  0
    9.7560   -1.8570   23.0770 N   0  0  0  0  0  0  0  0  0  0  0  0
    8.8830   -3.0340   22.9560 C   0  0  0  0  0  0  0  0  0  0  0  0
    7.4100   -2.6310   22.8550 C   0  0  0  0  0  0  0  0  0  0  0  0
   11.0720   -2.0790   23.5560 C   0  0  0  0  0  0  0  0  0  0  0  0
   12.1830   -1.5470   22.8820 C   0  0  0  0  0  0  0  0  0  0  0  0
   13.4590   -1.7130   23.4050 C   0  0  0  0  0  0  0  0  0  0  0  0
   13.6510   -2.4140   24.5780 C   0  0  0  0  0  0  0  0  0  0  0  0
   12.5690   -2.9670   25.2340 C   0  0  0  0  0  0  0  0  0  0  0  0
   11.2830   -2.8060   24.7330 C   0  0  0  0  0  0  0  0  0  0  0  0
  2  1  2  0
  3  2  1  0
  4  3  1  0
  5  4  2  0
  6  5  1  0
  7  6  2  0
  8  7  1  0
  9  8  2  0
  9  4  1  0
 10  9  1  0
 11 10  2  0
 12 11  1  0
 12  3  2  0
 13  2  1  0
 14 13  1  0
 15 14  1  0
 16 15  1  0
 17 16  1  0
 18 13  1  0
 18 17  1  0
 19 16  1  0
 20 19  2  0
 21 20  1  0
 22 21  2  0
 23 22  1  0
 24 23  2  0
 24 19  1  0
M  END
