
     RDKit          3D

 15 16  0  0  0  0  0  0  0  0999 V2000
   22.3860   15.0040    8.4720 C   0  0  0  0  0  0  0  0  0  0  0  0
   21.2730   14.9140    7.4300 C   0  0  2  0  0  0  0  0  0  0  0  0
   20.5630   13.5710    7.6760 C   0  0  1  0  0  0  0  0  0  0  0  0
   19.1950   13.7570    7.4310 O   0  0  0  0  0  0  0  0  0  0  0  0
   21.0460   12.4720    6.8770 C   0  0  0  0  0  0  0  0  0  0  0  0
   22.3560   12.6370    6.3040 C   0  0  0  0  0  0  0  0  0  0  0  0
   22.5800   13.9680    5.6020 C   0  0  0  0  0  0  0  0  0  0  0  0
   21.8020   15.0950    6.0850 N   0  0  0  0  0  0  0  0  0  0  0  0
   22.4470   16.1380    5.9040 C   0  0  0  0  0  0  0  0  0  0  0  0
   21.6390   17.3970    5.5920 C   0  0  0  0  0  0  0  0  0  0  0  0
   21.2710   17.6470    4.2760 C   0  0  0  0  0  0  0  0  0  0  0  0
   20.5570   18.7950    3.9590 C   0  0  0  0  0  0  0  0  0  0  0  0
   20.2240   19.7000    4.9570 C   0  0  0  0  0  0  0  0  0  0  0  0
   20.5990   19.4620    6.2720 C   0  0  0  0  0  0  0  0  0  0  0  0
   21.3170   18.3140    6.5900 C   0  0  0  0  0  0  0  0  0  0  0  0
  2  1  1  1
  3  2  1  0
  3  4  1  6
  5  3  1  0
  6  5  1  0
  7  6  1  0
  8  2  1  0
  8  7  1  0
  9  8  1  0
 10  9  1  0
 11 10  2  0
 12 11  1  0
 13 12  2  0
 14 13  1  0
 15 14  2  0
 15 10  1  0
M  END
