
     RDKit          3D

 21 23  0  0  0  0  0  0  0  0999 V2000
    7.7300   -0.6440   20.3790 N   0  0  0  0  0  0  0  0  0  0  0  0
   12.7560   -1.0130   22.1260 C   0  0  0  0  0  0  0  0  0  0  0  0
    8.7310    1.1410   21.3410 O   0  0  0  0  0  0  0  0  0  0  0  0
   13.9670   -1.7890   21.1430 Cl  0  0  0  0  0  0  0  0  0  0  0  0
   13.1420   -0.0660   23.0500 C   0  0  0  0  0  0  0  0  0  0  0  0
    6.1000    0.4630   17.2950 N   0  0  0  0  0  0  0  0  0  0  0  0
   12.1670    0.5420   23.8260 C   0  0  0  0  0  0  0  0  0  0  0  0
    4.0510    1.3120   21.8350 N   0  0  0  0  0  0  0  0  0  0  0  0
   10.8310    0.2050   23.6580 C   0  0  0  0  0  0  0  0  0  0  0  0
   10.4480   -0.7290   22.7030 C   0  0  1  0  0  0  0  0  0  0  0  0
    8.9870   -0.9890   22.4120 C   0  0  0  0  0  0  0  0  0  0  0  0
    8.4430   -0.0480   21.3520 C   0  0  2  0  0  0  0  0  0  0  0  0
    6.6840   -0.1750   19.5670 C   0  0  2  0  0  0  0  0  0  0  0  0
    6.8320   -0.2220   18.1810 C   0  0  0  0  0  0  0  0  0  0  0  0
    5.1180    1.2140   17.7670 C   0  0  0  0  0  0  0  0  0  0  0  0
    4.7950    1.3300   19.1420 C   0  0  1  0  0  0  0  0  0  0  0  0
    3.6270    1.9940   19.5990 C   0  0  0  0  0  0  0  0  0  0  0  0
    3.3080    1.9370   20.9150 C   0  0  0  0  0  0  0  0  0  0  0  0
    5.1610    0.7010   21.4250 C   0  0  0  0  0  0  0  0  0  0  0  0
    5.6130    0.6320   20.0810 C   0  0  1  0  0  0  0  0  0  0  0  0
   11.4310   -1.3560   21.9470 C   0  0  0  0  0  0  0  0  0  0  0  0
  4  2  1  0
  5  2  1  0
  7  5  1  0
  9  7  1  0
 10  9  1  0
 10 11  1  6
 12  3  1  6
 12  1  1  0
 12 11  1  0
 13  1  1  1
 14 13  1  0
 14  6  1  0
 15  6  1  0
 16 15  1  6
 17 16  1  0
 18 17  1  0
 18  8  1  0
 19  8  1  0
 20 19  1  6
 20 16  1  0
 20 13  1  0
 21 10  1  0
 21  2  1  0
M  END
$$$$
