
     RDKit          3D

 20 22  0  0  0  0  0  0  0  0999 V2000
    8.9130    1.0220   20.8580 O   0  0  0  0  0  0  0  0  0  0  0  0
    8.7230   -0.1720   21.0880 C   0  0  0  0  0  0  0  0  0  0  0  0
    9.3420   -0.8510   22.0730 N   0  0  0  0  0  0  0  0  0  0  0  0
   10.1420   -0.2790   23.0800 C   0  0  2  0  0  0  0  0  0  0  0  0
    9.5450    0.1580   24.2580 C   0  0  0  0  0  0  0  0  0  0  0  0
   10.2740    0.9100   25.1620 C   0  0  0  0  0  0  0  0  0  0  0  0
   11.5950    1.2150   24.9080 C   0  0  0  0  0  0  0  0  0  0  0  0
   12.1990    0.7610   23.7540 C   0  0  0  0  0  0  0  0  0  0  0  0
   11.4820    0.0090   22.8390 C   0  0  0  0  0  0  0  0  0  0  0  0
    7.7120   -0.9900   20.3120 C   0  0  0  0  0  0  0  0  0  0  0  0
    6.7860   -0.1630   19.4520 C   0  0  0  0  0  0  0  0  0  0  0  0
    5.6660    0.5280   20.0100 C   0  0  0  0  0  0  0  0  0  0  0  0
    5.3360    0.4910   21.3910 C   0  0  0  0  0  0  0  0  0  0  0  0
    4.2660    1.1900   21.8760 C   0  0  0  0  0  0  0  0  0  0  0  0
    3.4720    1.9490   21.0290 C   0  0  0  0  0  0  0  0  0  0  0  0
    3.7510    2.0230   19.6970 C   0  0  0  0  0  0  0  0  0  0  0  0
    4.8490    1.3140   19.1500 C   0  0  0  0  0  0  0  0  0  0  0  0
    5.1920    1.3510   17.7820 C   0  0  0  0  0  0  0  0  0  0  0  0
    6.2250    0.7060   17.2620 N   0  0  0  0  0  0  0  0  0  0  0  0
    6.9840   -0.0190   18.0930 C   0  0  0  0  0  0  0  0  0  0  0  0
  2  1  1  0
  3  2  1  0
  4  3  1  6
  5  4  1  0
  6  5  1  0
  7  6  1  0
  8  7  1  0
  9  4  1  0
  9  8  1  0
 10  2  1  0
 11 10  1  0
 12 11  1  0
 13 12  1  0
 14 13  1  0
 15 14  1  0
 16 15  1  0
 17 16  1  0
 17 12  1  0
 18 17  1  0
 19 18  1  0
 20 19  1  0
 20 11  1  0
M  END
$$$$
