
     RDKit          3D

 19 20  0  0  0  0  0  0  0  0999 V2000
    6.7920   -2.1540   24.1530 N   0  0  0  0  0  0  0  0  0  0  0  0
    1.3510   -2.5010   27.7630 C   0  0  0  0  0  0  0  0  0  0  0  0
    7.6430   -1.8610   26.2210 O   0  0  0  0  0  0  0  0  0  0  0  0
    2.7340   -2.3930   27.1840 C   0  0  0  0  0  0  0  0  0  0  0  0
    6.2490   -3.8460   22.4810 C   0  0  0  0  0  0  0  0  0  0  0  0
    5.7300   -2.6840   23.2950 C   0  0  0  0  0  0  0  0  0  0  0  0
    7.4180   -3.4060   20.3450 C   0  0  0  0  0  0  0  0  0  0  0  0
    8.6990   -2.9400   19.7090 C   0  0  0  0  0  0  0  0  0  0  0  0
    3.7700   -3.1910   27.6390 C   0  0  0  0  0  0  0  0  0  0  0  0
    5.0440   -3.0910   27.1060 C   0  0  0  0  0  0  0  0  0  0  0  0
    5.3070   -2.1770   26.1000 C   0  0  0  0  0  0  0  0  0  0  0  0
    4.2780   -1.3790   25.6330 C   0  0  0  0  0  0  0  0  0  0  0  0
    3.0080   -1.4890   26.1720 C   0  0  0  0  0  0  0  0  0  0  0  0
    6.6760   -2.0570   25.4910 C   0  0  0  0  0  0  0  0  0  0  0  0
    7.9960   -1.7640   23.4190 C   0  0  0  0  0  0  0  0  0  0  0  0
    8.4790   -2.8920   22.5320 C   0  0  0  0  0  0  0  0  0  0  0  0
    7.3890   -3.3950   21.6920 N   0  0  0  0  0  0  0  0  0  0  0  0
    6.4620   -3.7540   19.6630 O   0  0  0  0  0  0  0  0  0  0  0  0
    8.7590   -3.1350   17.9140 S   0  0  0  0  0  0  0  0  0  0  0  0
  4  2  1  0
  6  5  1  0
  6  1  1  0
  8  7  1  0
  9  4  1  0
 10  9  1  0
 11 10  1  0
 12 11  1  0
 13 12  1  0
 13  4  1  0
 14 11  1  0
 14  3  1  0
 14  1  1  0
 15  1  1  0
 16 15  1  0
 17  7  1  0
 17 16  1  0
 17  5  1  0
 18  7  1  0
  8 19  1  0
M  END
$$$$
