
     RDKit          3D

 19 20  0  0  0  0  0  0  0  0999 V2000
    6.7200   -2.1080   24.1380 N   0  0  0  0  0  0  0  0  0  0  0  0
    1.2790   -2.4570   27.7470 C   0  0  0  0  0  0  0  0  0  0  0  0
    7.5700   -1.8090   26.2060 O   0  0  0  0  0  0  0  0  0  0  0  0
    2.6620   -2.3480   27.1680 C   0  0  0  0  0  0  0  0  0  0  0  0
    7.3200   -3.3540   21.6800 N   0  0  0  0  0  0  0  0  0  0  0  0
    6.3960   -3.7200   19.6510 O   0  0  0  0  0  0  0  0  0  0  0  0
    3.6990   -3.1420   27.6260 C   0  0  0  0  0  0  0  0  0  0  0  0
    4.9730   -3.0410   27.0920 C   0  0  0  0  0  0  0  0  0  0  0  0
    5.2350   -2.1290   26.0840 C   0  0  0  0  0  0  0  0  0  0  0  0
    4.2040   -1.3350   25.6150 C   0  0  0  0  0  0  0  0  0  0  0  0
    2.9350   -1.4460   26.1540 C   0  0  0  0  0  0  0  0  0  0  0  0
    6.6040   -2.0080   25.4760 C   0  0  0  0  0  0  0  0  0  0  0  0
    7.9240   -1.7170   23.4030 C   0  0  0  0  0  0  0  0  0  0  0  0
    8.4100   -2.8470   22.5190 C   0  0  0  0  0  0  0  0  0  0  0  0
    6.1810   -3.8050   22.4700 C   0  0  0  0  0  0  0  0  0  0  0  0
    5.6600   -2.6420   23.2810 C   0  0  0  0  0  0  0  0  0  0  0  0
    7.3510   -3.3690   20.3330 C   0  0  0  0  0  0  0  0  0  0  0  0
    8.6310   -2.9010   19.6970 C   0  0  0  0  0  0  0  0  0  0  0  0
    8.6920   -3.1000   17.9020 S   0  0  0  0  0  0  0  0  0  0  0  0
  4  2  1  0
  7  4  2  0
  8  7  1  0
  9  8  2  0
 10  9  1  0
 11 10  2  0
 11  4  1  0
 12  9  1  0
 12  3  2  0
 12  1  1  0
 13  1  1  0
 14  5  1  0
 14 13  1  0
 15  5  1  0
 16 15  1  0
 16  1  1  0
 17  6  2  0
 17  5  1  0
 18 17  1  0
 18 19  1  0
M  END
