
     RDKit          3D

 23 25  0  0  0  0  0  0  0  0999 V2000
    6.5150    0.0690   21.0510 N   0  0  0  0  0  0  0  0  0  0  0  0
    7.9350   -0.7800   22.5920 N   0  0  0  0  0  0  0  0  0  0  0  0
   13.9560   -2.0660   24.8810 C   0  0  0  0  0  0  0  0  0  0  0  0
    6.0480    0.3370   19.7520 C   0  0  0  0  0  0  0  0  0  0  0  0
    8.0710    0.5380   25.8150 O   0  0  0  0  0  0  0  0  0  0  0  0
   11.5130   -1.8150   23.5560 C   0  0  0  0  0  0  0  0  0  0  0  0
    4.8850    1.0840   19.6240 C   0  0  0  0  0  0  0  0  0  0  0  0
    9.0860   -0.8980   23.4970 C   0  0  1  0  0  0  0  0  0  0  0  0
    8.4990    1.2610   24.6480 C   0  0  0  0  0  0  0  0  0  0  0  0
    6.8350    0.1610   18.6170 C   0  0  0  0  0  0  0  0  0  0  0  0
    5.4430    1.4530   17.3490 C   0  0  0  0  0  0  0  0  0  0  0  0
   12.9400   -2.9590   25.1340 C   0  0  0  0  0  0  0  0  0  0  0  0
   12.5530   -0.9300   23.3010 C   0  0  0  0  0  0  0  0  0  0  0  0
    9.5730    0.5110   23.8770 C   0  0  0  0  0  0  0  0  0  0  0  0
   11.7240   -2.8350   24.4770 C   0  0  0  0  0  0  0  0  0  0  0  0
   13.7630   -1.0510   23.9650 C   0  0  0  0  0  0  0  0  0  0  0  0
    8.5970   -1.6120   24.7670 C   0  0  0  0  0  0  0  0  0  0  0  0
    7.8140   -0.0530   21.4630 C   0  0  0  0  0  0  0  0  0  0  0  0
    6.5480    0.7020   17.4310 N   0  0  0  0  0  0  0  0  0  0  0  0
    8.7620    0.5020   20.8990 O   0  0  0  0  0  0  0  0  0  0  0  0
   10.2070   -1.7070   22.8060 C   0  0  0  0  0  0  0  0  0  0  0  0
    4.5860    1.6660   18.4070 C   0  0  0  0  0  0  0  0  0  0  0  0
    7.5580   -0.7660   25.4790 C   0  0  0  0  0  0  0  0  0  0  0  0
  4  1  1  0
  7  4  2  0
  8  2  1  0
  9  5  1  0
 10  4  1  0
 12  3  2  0
 13  6  1  0
 14  9  1  0
 14  8  1  0
 15 12  1  0
 15  6  2  0
 16 13  2  0
 16  3  1  0
 17  8  1  0
 18  1  1  0
 18  2  1  0
 19 11  1  0
 19 10  2  0
 20 18  2  0
  8 21  1  6
 21  6  1  0
 22 11  2  0
 22  7  1  0
 23 17  1  0
 23  5  1  0
M  END
