
     RDKit          3D

 33 34  0  0  0  0  0  0  0  0999 V2000
    5.6330   -2.5290   21.4920 O   0  0  0  0  0  0  0  0  0  0  0  0
    6.8050   -2.4290   21.1660 C   0  0  1  0  0  0  0  0  0  0  0  0
    7.3360   -3.2430   20.0030 C   0  0  0  0  0  0  0  0  0  0  0  0
    8.0540   -4.5010   20.4140 C   0  0  0  0  0  0  0  0  0  0  0  0
    7.5960   -1.4280   21.6590 N   0  0  0  0  0  0  0  0  0  0  0  0
    8.8330   -1.6940   22.3480 C   0  0  2  0  0  0  0  0  0  0  0  0
    8.8540   -1.8350   23.7380 C   0  0  0  0  0  0  0  0  0  0  0  0
   10.0620   -1.9110   24.4160 C   0  0  0  0  0  0  0  0  0  0  0  0
   11.2750   -1.8520   23.7340 C   0  0  2  0  0  0  0  0  0  0  0  0
   12.6000   -1.8330   24.5090 C   0  0  1  0  0  0  0  0  0  0  0  0
   12.6620   -2.9730   25.5370 C   0  0  0  0  0  0  0  0  0  0  0  0
   13.8010   -1.9820   23.5760 C   0  0  0  0  0  0  0  0  0  0  0  0
   12.7390   -0.5050   25.2510 C   0  0  0  0  0  0  0  0  0  0  0  0
   11.2400   -1.7470   22.3450 C   0  0  0  0  0  0  0  0  0  0  0  0
   10.0400   -1.6770   21.6570 C   0  0  0  0  0  0  0  0  0  0  0  0
    7.1800   -0.0200   21.4330 C   0  0  2  0  0  0  0  0  0  0  0  0
    6.5330    0.2890   20.0880 C   0  0  1  0  0  0  0  0  0  0  0  0
    5.3520    1.0140   20.0190 C   0  0  0  0  0  0  0  0  0  0  0  0
    6.6910    0.3570   17.6820 N   0  0  0  0  0  0  0  0  0  0  0  0
    4.8530    1.4130   18.7930 C   0  0  0  0  0  0  0  0  0  0  0  0
    5.5560    1.0630   17.6550 C   0  0  0  0  0  0  0  0  0  0  0  0
    7.1520   -0.0150   18.8820 C   0  0  0  0  0  0  0  0  0  0  0  0
    8.2550    1.0140   21.8050 C   0  0  0  0  0  0  0  0  0  0  0  0
    9.1260    1.3310   20.9970 O   0  0  0  0  0  0  0  0  0  0  0  0
    8.1480    1.5600   23.0170 N   0  0  0  0  0  0  0  0  0  0  0  0
    8.9290    2.7160   23.4360 C   0  0  0  0  0  0  0  0  0  0  0  0
   10.3190    2.3410   23.9080 C   0  0  0  0  0  0  0  0  0  0  0  0
   11.3490    2.7890   22.9160 C   0  0  0  0  0  0  0  0  0  0  0  0
   11.3070    2.5420   21.7390 O   0  0  0  0  0  0  0  0  0  0  0  0
   12.3080    3.5200   23.4870 O   0  0  0  0  0  0  0  0  0  0  0  0
   13.3990    3.9510   22.6180 C   0  0  0  0  0  0  0  0  0  0  0  0
   13.4320    5.3970   22.5870 C   0  0  0  0  0  0  0  0  0  0  0  0
    8.3350   -3.6800   18.7950 S   0  0  0  0  0  0  0  0  0  0  0  0
  2  1  1  6
  3  2  1  0
  4  3  1  0
  5  2  1  0
  6  5  1  1
  7  6  1  0
  8  7  1  0
  9  8  1  1
 10  9  1  0
 10 11  1  1
 12 10  1  0
 13 10  1  0
 14  9  1  0
 15  6  1  0
 15 14  1  0
 16  5  1  0
 17 16  1  0
 17 18  1  6
 20 18  1  0
 21 20  1  0
 21 19  1  0
 22 19  1  0
 22 17  1  0
 16 23  1  6
 24 23  1  0
 25 23  1  0
 26 25  1  0
 27 26  1  0
 28 27  1  0
 29 28  1  0
 30 28  1  0
 31 30  1  0
 32 31  1  0
  3 33  1  0
M  END
$$$$
