
     RDKit          3D

 49 52  0  0  0  0  0  0  0  0999 V2000
   11.7650    4.5070   22.6690 C   0  0  0  0  0  0  0  0  0  0  0  0
   12.2340    4.1080   23.7590 O   0  0  0  0  0  0  0  0  0  0  0  0
   12.4350    5.3030   21.8180 N   0  0  0  0  0  0  0  0  0  0  0  0
   13.7500    5.9090   22.0800 C   0  0  2  0  0  0  0  0  0  0  0  0
   14.1240    6.7820   20.8770 C   0  0  0  0  0  0  0  0  0  0  0  0
   14.8380    4.8470   22.2720 C   0  0  0  0  0  0  0  0  0  0  0  0
   14.4480    5.9630   19.6350 C   0  0  0  0  0  0  0  0  0  0  0  0
   15.0970    4.0320   21.0140 C   0  0  0  0  0  0  0  0  0  0  0  0
   15.5430    4.9580   19.9080 C   0  0  0  0  0  0  0  0  0  0  0  0
   13.6610    6.7550   23.3940 C   0  0  0  0  0  0  0  0  0  0  0  0
   12.5660    8.1580   23.3350 S   0  0  2  0  0  0  0  0  0  0  0  0
   11.3530    7.8020   22.6520 O   0  0  0  0  0  0  0  0  0  0  0  0
   13.2890    9.2810   22.8240 O   0  0  0  0  0  0  0  0  0  0  0  0
   12.0620    8.5250   25.0320 C   0  0  1  0  0  0  0  0  0  0  0  0
   11.2250    7.3730   25.5780 C   0  0  0  0  0  0  0  0  0  0  0  0
   13.3440    8.6920   25.8470 C   0  0  0  0  0  0  0  0  0  0  0  0
   11.2450    9.8110   25.0400 C   0  0  0  0  0  0  0  0  0  0  0  0
   10.5170    4.1930   22.2740 N   0  0  0  0  0  0  0  0  0  0  0  0
    9.7570    3.1530   22.9430 C   0  0  1  0  0  0  0  0  0  0  0  0
    8.3280    3.6170   23.2350 C   0  0  1  0  0  0  0  0  0  0  0  0
    7.5680    2.4860   23.9090 C   0  0  0  0  0  0  0  0  0  0  0  0
    8.4000    4.8090   24.1870 C   0  0  0  0  0  0  0  0  0  0  0  0
    7.5450    4.0380   21.9910 C   0  0  0  0  0  0  0  0  0  0  0  0
    9.9230    1.8430   22.1580 C   0  0  0  0  0  0  0  0  0  0  0  0
    9.5750    1.7720   20.9930 O   0  0  0  0  0  0  0  0  0  0  0  0
   10.4300    0.7860   22.8150 N   0  0  0  0  0  0  0  0  0  0  0  0
   10.8220    0.7810   24.2430 C   0  0  0  0  0  0  0  0  0  0  0  0
   10.6130   -0.5220   22.1790 C   0  0  1  0  0  0  0  0  0  0  0  0
   11.5380   -1.2670   23.0990 C   0  0  2  0  0  0  0  0  0  0  0  0
   11.6880   -0.4550   24.3760 C   0  0  1  0  0  0  0  0  0  0  0  0
   12.8860   -0.7080   23.4770 C   0  0  1  0  0  0  0  0  0  0  0  0
   13.9000   -1.7030   24.0040 C   0  0  0  0  0  0  0  0  0  0  0  0
   13.5420    0.4370   22.7340 C   0  0  0  0  0  0  0  0  0  0  0  0
    9.2880   -1.2460   22.1280 C   0  0  0  0  0  0  0  0  0  0  0  0
    8.6260   -1.3480   23.1540 O   0  0  0  0  0  0  0  0  0  0  0  0
    8.8590   -1.6760   20.9380 N   0  0  0  0  0  0  0  0  0  0  0  0
    7.5160   -2.2650   20.7800 C   0  0  1  0  0  0  0  0  0  0  0  0
    6.6270   -1.3370   19.9340 C   0  0  0  0  0  0  0  0  0  0  0  0
    6.2390   -0.0310   20.6210 C   0  0  0  0  0  0  0  0  0  0  0  0
    5.1360    0.7310   19.9270 C   0  0  0  0  0  0  0  0  0  0  0  0
    5.2430    0.7000   18.4390 C   0  0  0  0  0  0  0  0  0  0  0  0
    8.5360   -4.4690   20.9180 O   0  0  0  0  0  0  0  0  0  0  0  0
    7.5870   -3.7120   20.2110 C   0  0  1  0  0  0  0  0  0  0  0  0
    5.4510   -4.4450   19.4770 O   0  0  0  0  0  0  0  0  0  0  0  0
    6.0760   -4.9910   21.5930 N   0  0  0  0  0  0  0  0  0  0  0  0
    4.9200   -5.8040   21.8450 C   0  0  2  0  0  0  0  0  0  0  0  0
    3.7060   -5.1470   22.4100 C   0  0  0  0  0  0  0  0  0  0  0  0
    4.5120   -6.0710   23.2570 C   0  0  0  0  0  0  0  0  0  0  0  0
    6.2780   -4.4130   20.3840 C   0  0  0  0  0  0  0  0  0  0  0  0
  2  1  2  0
  3  1  1  0
  4  3  1  0
  5  4  1  0
  6  4  1  0
  7  5  1  0
  8  6  1  0
  9  8  1  0
  9  7  1  0
  4 10  1  1
 11 10  1  1
 12 11  2  0
 13 11  2  0
 14 11  1  0
 14 15  1  1
 16 14  1  0
 17 14  1  0
 18  1  1  0
 19 18  1  6
 20 19  1  0
 20 21  1  1
 22 20  1  0
 23 20  1  0
 24 19  1  0
 25 24  2  0
 26 24  1  0
 27 26  1  0
 28 26  1  0
 29 28  1  6
 30 27  1  6
 30 29  1  0
 31 30  1  0
 31 29  1  0
 31 32  1  1
 33 31  1  0
 28 34  1  1
 35 34  2  0
 36 34  1  0
 37 36  1  0
 37 38  1  6
 39 38  1  0
 40 39  1  0
 41 40  1  0
 43 42  1  1
 43 37  1  0
 46 45  1  1
 47 46  1  0
 48 46  1  0
 48 47  1  0
 49 45  1  0
 49 44  2  0
 49 43  1  0
M  END
$$$$
