
     RDKit          3D

 18 19  0  0  0  0  0  0  0  0999 V2000
    9.8900   -5.3280   25.2300 N   0  0  0  0  0  0  0  0  0  0  0  0
    7.4890   -2.6120   27.5740 C   0  0  0  0  0  0  0  0  0  0  0  0
    8.6000   -2.5100   22.4940 O   0  0  0  0  0  0  0  0  0  0  0  0
   13.6530   -1.3580   21.3360 Cl  0  0  0  0  0  0  0  0  0  0  0  0
    8.3120   -3.5560   26.7350 C   0  0  0  0  0  0  0  0  0  0  0  0
    8.4360   -1.9280   24.9100 N   0  0  0  0  0  0  0  0  0  0  0  0
    7.7060   -0.3250   23.2260 O   0  0  0  0  0  0  0  0  0  0  0  0
    8.6570   -4.8150   27.2160 C   0  0  0  0  0  0  0  0  0  0  0  0
    9.4320   -5.6540   26.4420 C   0  0  0  0  0  0  0  0  0  0  0  0
    9.5640   -4.1180   24.7590 C   0  0  0  0  0  0  0  0  0  0  0  0
    8.7780   -3.1980   25.4580 C   0  0  0  0  0  0  0  0  0  0  0  0
   10.2660   -0.6950   23.3150 C   0  0  0  0  0  0  0  0  0  0  0  0
   10.5680    0.4130   24.0920 C   0  0  0  0  0  0  0  0  0  0  0  0
   11.8200    0.9960   23.9760 C   0  0  0  0  0  0  0  0  0  0  0  0
   12.7640    0.4750   23.1030 C   0  0  0  0  0  0  0  0  0  0  0  0
   12.4440   -0.6480   22.3670 C   0  0  0  0  0  0  0  0  0  0  0  0
   11.2000   -1.2440   22.4510 C   0  0  0  0  0  0  0  0  0  0  0  0
    8.6480   -1.3910   23.3840 S   0  0  2  0  0  0  0  0  0  0  0  0
  5  2  1  0
  8  5  2  0
  9  8  1  0
  9  1  2  0
 10  1  1  0
 11 10  2  0
 11  6  1  0
 11  5  1  0
 13 12  2  0
 14 13  1  0
 15 14  2  0
 16  4  1  0
 16 15  1  0
 17 12  1  0
 17 16  2  0
 18 12  1  0
 18  7  2  0
 18  6  1  1
 18  3  2  0
M  END
