
     RDKit          3D

 20 21  0  0  0  0  0  0  0  0999 V2000
    6.9670   -2.4660   25.9000 N   0  0  0  0  0  0  0  0  0  0  0  0
    6.0000   -0.2980   26.5170 C   0  0  0  0  0  0  0  0  0  0  0  0
    5.3880   -0.2650   25.3070 O   0  0  0  0  0  0  0  0  0  0  0  0
    5.8700    0.7190   27.4640 C   0  0  0  0  0  0  0  0  0  0  0  0
    6.8640   -4.1140   21.0690 N   0  0  0  0  0  0  0  0  0  0  0  0
    4.8820   -3.2860   25.4810 O   0  0  0  0  0  0  0  0  0  0  0  0
    6.5220    0.6160   28.6810 C   0  0  0  0  0  0  0  0  0  0  0  0
    5.6260   -4.6310   19.2570 O   0  0  0  0  0  0  0  0  0  0  0  0
    7.3040   -0.4840   28.9660 C   0  0  0  0  0  0  0  0  0  0  0  0
    7.4440   -1.5000   28.0340 C   0  0  0  0  0  0  0  0  0  0  0  0
    6.7810   -1.4170   26.8250 C   0  0  0  0  0  0  0  0  0  0  0  0
    6.0590   -3.1530   25.1680 C   0  0  0  0  0  0  0  0  0  0  0  0
    6.6450   -3.7600   23.9070 C   0  0  0  0  0  0  0  0  0  0  0  0
    5.6550   -4.6330   23.1310 C   0  0  0  0  0  0  0  0  0  0  0  0
    6.3210   -5.1970   21.8990 C   0  0  0  0  0  0  0  0  0  0  0  0
    7.8130   -3.2440   21.7690 C   0  0  0  0  0  0  0  0  0  0  0  0
    7.1640   -2.6530   22.9880 C   0  0  0  0  0  0  0  0  0  0  0  0
    6.4900   -3.9400   19.7850 C   0  0  0  0  0  0  0  0  0  0  0  0
    7.1900   -2.8680   18.9930 C   0  0  0  0  0  0  0  0  0  0  0  0
    8.7740   -3.4540   18.3210 S   0  0  0  0  0  0  0  0  0  0  0  0
  3  2  1  0
  4  2  2  0
  7  4  1  0
  9  7  2  0
 10  9  1  0
 11  2  1  0
 11  1  1  0
 11 10  2  0
 12  6  2  0
 12  1  1  0
 13 12  1  0
 14 13  1  0
 15  5  1  0
 15 14  1  0
 16  5  1  0
 17 16  1  0
 17 13  1  0
 18  8  2  0
 18  5  1  0
 19 18  1  0
 19 20  1  0
M  END
