
     RDKit          3D

 37 39  0  0  0  0  0  0  0  0999 V2000
    5.3280   -4.6080   19.5260 O   0  0  0  0  0  0  0  0  0  0  0  0
    6.0940   -4.7370   20.4350 C   0  0  0  0  0  0  0  0  0  0  0  0
    7.4690   -4.0420   20.4250 C   0  0  2  0  0  0  0  0  0  0  0  0
    8.3120   -4.7610   21.2780 O   0  0  0  0  0  0  0  0  0  0  0  0
    7.3510   -2.6600   21.0630 C   0  0  2  0  0  0  0  0  0  0  0  0
    6.4390   -1.7400   20.2300 C   0  0  0  0  0  0  0  0  0  0  0  0
    6.1780   -0.4480   21.0760 C   0  0  1  0  0  0  0  0  0  0  0  0
    5.0510    0.4400   20.5100 C   0  0  0  0  0  0  0  0  0  0  0  0
    4.4250    0.5080   21.9170 C   0  0  0  0  0  0  0  0  0  0  0  0
    5.3100   -0.6740   22.3370 C   0  0  0  0  0  0  0  0  0  0  0  0
    8.7010   -2.0970   21.2180 N   0  0  0  0  0  0  0  0  0  0  0  0
    9.2060   -1.6790   22.5340 C   0  0  0  0  0  0  0  0  0  0  0  0
   10.6230   -1.1010   22.5550 C   0  0  2  0  0  0  0  0  0  0  0  0
   11.5650   -1.6830   23.2860 C   0  0  2  0  0  0  0  0  0  0  0  0
   11.8390   -0.8820   24.5650 C   0  0  1  0  0  0  0  0  0  0  0  0
   13.0040   -1.2990   23.6460 C   0  0  2  0  0  0  0  0  0  0  0  0
   13.5580   -0.0810   22.8570 C   0  0  0  0  0  0  0  0  0  0  0  0
   13.8930   -2.5000   24.0190 C   0  0  0  0  0  0  0  0  0  0  0  0
   10.7880    0.2420   24.5510 C   0  0  0  0  0  0  0  0  0  0  0  0
   10.3750    0.3090   23.2740 N   0  0  0  0  0  0  0  0  0  0  0  0
    9.7130    1.4830   22.6980 C   0  0  0  0  0  0  0  0  0  0  0  0
    9.4740    2.7400   23.5610 C   0  0  2  0  0  0  0  0  0  0  0  0
    7.9750    2.9700   23.7830 C   0  0  2  0  0  0  0  0  0  0  0  0
    7.3620    1.6600   24.3520 C   0  0  0  0  0  0  0  0  0  0  0  0
    7.2850    3.4070   22.4690 C   0  0  0  0  0  0  0  0  0  0  0  0
    7.9010    4.1050   24.8380 C   0  0  0  0  0  0  0  0  0  0  0  0
   10.1420    3.8010   22.8650 N   0  0  0  0  0  0  0  0  0  0  0  0
   11.3630    4.3450   23.4700 C   0  0  0  0  0  0  0  0  0  0  0  0
   12.0340    5.4080   22.7130 N   0  0  0  0  0  0  0  0  0  0  0  0
   13.2690    6.0430   23.2290 C   0  0  1  0  0  0  0  0  0  0  0  0
   14.2600    4.9780   23.7610 C   0  0  0  0  0  0  0  0  0  0  0  0
   13.9150    6.8240   22.0570 C   0  0  0  0  0  0  0  0  0  0  0  0
   12.8690    7.0130   24.3730 C   0  0  0  0  0  0  0  0  0  0  0  0
   11.7740    3.9430   24.5250 O   0  0  0  0  0  0  0  0  0  0  0  0
    9.3850    1.4140   21.5480 O   0  0  0  0  0  0  0  0  0  0  0  0
    8.5370   -1.7410   23.5140 O   0  0  0  0  0  0  0  0  0  0  0  0
    5.7130   -5.5330   21.5940 N   0  0  0  0  0  0  0  0  0  0  0  0
  2  1  2  0
  3  2  1  0
  3  4  1  1
  5  3  1  0
  5  6  1  6
  7  6  1  6
  8  7  1  0
  9  8  1  0
 10  9  1  0
 10  7  1  0
 11  5  1  0
 12 11  1  0
 13 12  1  1
 14 13  1  6
 15 14  1  0
 16 15  1  0
 16 14  1  0
 16 17  1  6
 18 16  1  0
 15 19  1  6
 20 19  1  0
 20 13  1  0
 21 20  1  0
 22 21  1  0
 23 22  1  0
 23 24  1  1
 25 23  1  0
 26 23  1  0
 22 27  1  6
 28 27  1  0
 29 28  1  0
 30 29  1  0
 30 31  1  1
 32 30  1  0
 33 30  1  0
 34 28  2  0
 35 21  2  0
 36 12  2  0
 37  2  1  0
M  END
$$$$
