
     RDKit          3D

 22 25  0  0  0  0  0  0  0  0999 V2000
    7.4620   -0.8250   20.0890 N   0  0  0  0  0  0  0  0  0  0  0  0
    6.8980    0.5480   25.0690 C   0  0  0  0  0  0  0  0  0  0  0  0
   10.6670   -0.8480   24.2050 O   0  0  0  0  0  0  0  0  0  0  0  0
    5.3430    1.2540   25.4270 Cl  0  0  0  0  0  0  0  0  0  0  0  0
    7.9010    0.6230   26.0100 C   0  0  0  0  0  0  0  0  0  0  0  0
    6.9320   -0.5450   17.7770 N   0  0  0  0  0  0  0  0  0  0  0  0
    8.4640    0.9550   21.0650 O   0  0  0  0  0  0  0  0  0  0  0  0
    9.1500    0.1120   25.7090 C   0  0  0  0  0  0  0  0  0  0  0  0
    6.1520    0.3670   17.0790 N   0  0  0  0  0  0  0  0  0  0  0  0
    9.3770   -0.4570   24.4670 C   0  0  0  0  0  0  0  0  0  0  0  0
    5.7460    0.6140   19.2250 N   0  0  0  0  0  0  0  0  0  0  0  0
   11.0410   -0.7080   22.8240 C   0  0  0  0  0  0  0  0  0  0  0  0
   10.1470   -1.5280   21.9280 C   0  0  0  0  0  0  0  0  0  0  0  0
    8.6610   -1.1890   22.1720 C   0  0  2  0  0  0  0  0  0  0  0  0
    8.1370   -0.2300   21.1030 C   0  0  2  0  0  0  0  0  0  0  0  0
    6.6990   -0.3690   19.0660 C   0  0  2  0  0  0  0  0  0  0  0  0
    5.4640    1.0340   17.9570 C   0  0  0  0  0  0  0  0  0  0  0  0
    5.0840    1.0250   20.4840 C   0  0  1  0  0  0  0  0  0  0  0  0
    5.1230    2.4600   20.8760 C   0  0  0  0  0  0  0  0  0  0  0  0
    3.8450    1.8470   20.3970 C   0  0  0  0  0  0  0  0  0  0  0  0
    8.3570   -0.5660   23.5210 C   0  0  0  0  0  0  0  0  0  0  0  0
    7.1000   -0.0500   23.8410 C   0  0  0  0  0  0  0  0  0  0  0  0
  4  2  1  0
  5  2  1  0
  8  5  1  0
  9  6  1  0
 10  8  1  0
 10  3  1  0
 12  3  1  0
 13 12  1  0
 14 13  1  6
 15  7  1  6
 15  1  1  0
 15 14  1  0
 16 11  1  0
 16  6  1  0
 16  1  1  1
 17 11  1  0
 17  9  1  0
 18 11  1  6
 19 18  1  0
 20 19  1  0
 20 18  1  0
 21 14  1  0
 21 10  1  0
 22 21  1  0
 22  2  1  0
M  END
$$$$
