
     RDKit          3D

 20 21  0  0  0  0  0  0  0  0999 V2000
    7.2060   -0.5380   21.0600 N   0  0  0  0  0  0  0  0  0  0  0  0
    8.0490   -0.7940   24.0530 C   0  0  0  0  0  0  0  0  0  0  0  0
    9.0350    0.7880   21.1580 O   0  0  0  0  0  0  0  0  0  0  0  0
    8.8720   -0.9990   22.7740 C   0  0  1  0  0  0  0  0  0  0  0  0
    6.4600    0.5140   17.6290 N   0  0  0  0  0  0  0  0  0  0  0  0
    8.3860   -0.1600   21.5880 C   0  0  0  0  0  0  0  0  0  0  0  0
   14.2650   -1.8480   20.4160 N   0  0  0  0  0  0  0  0  0  0  0  0
    6.5890    0.1340   19.9910 C   0  0  0  0  0  0  0  0  0  0  0  0
    7.0780   -0.0020   18.6920 C   0  0  0  0  0  0  0  0  0  0  0  0
    5.3230    1.1920   17.8430 C   0  0  0  0  0  0  0  0  0  0  0  0
    4.7900    1.4120   19.0970 C   0  0  0  0  0  0  0  0  0  0  0  0
    5.4280    0.8920   20.2130 C   0  0  0  0  0  0  0  0  0  0  0  0
    4.9170    1.1900   21.6000 C   0  0  0  0  0  0  0  0  0  0  0  0
   10.3520   -0.6780   22.9510 C   0  0  0  0  0  0  0  0  0  0  0  0
   10.7940    0.2040   23.9340 C   0  0  0  0  0  0  0  0  0  0  0  0
   12.1430    0.5070   24.0600 C   0  0  0  0  0  0  0  0  0  0  0  0
   13.0630   -0.0410   23.1790 C   0  0  0  0  0  0  0  0  0  0  0  0
   12.6320   -0.9250   22.1920 C   0  0  0  0  0  0  0  0  0  0  0  0
   13.5600   -1.4310   21.2120 C   0  0  0  0  0  0  0  0  0  0  0  0
   11.2830   -1.2560   22.0940 C   0  0  0  0  0  0  0  0  0  0  0  0
  4  2  1  1
  6  3  2  0
  6  1  1  0
  6  4  1  0
  8  1  1  0
  9  8  1  0
  9  5  2  0
 10  5  1  0
 11 10  2  0
 12 11  1  0
 12  8  2  0
 13 12  1  0
 14  4  1  0
 15 14  2  0
 16 15  1  0
 17 16  2  0
 18 17  1  0
 19  7  3  0
 19 18  1  0
 20 14  1  0
 20 18  2  0
M  END
