
     RDKit          3D

 30 33  0  0  0  0  0  0  0  0999 V2000
   13.5960   -1.7370   22.7400 S   0  0  0  0  0  0  0  0  0  0  0  0
    8.5910   -4.2240   26.2140 N   0  0  0  0  0  0  0  0  0  0  0  0
    7.5310   -0.2320   18.5050 N   0  0  0  0  0  0  0  0  0  0  0  0
    7.1730   -0.0970   19.8080 N   0  0  0  0  0  0  0  0  0  0  0  0
    8.1970   -5.6600   28.0800 C   0  0  0  0  0  0  0  0  0  0  0  0
   12.6350   -0.1370   24.4780 C   0  0  0  0  0  0  0  0  0  0  0  0
    3.7670    2.1000   19.3640 C   0  0  0  0  0  0  0  0  0  0  0  0
    9.0910    1.4680   20.9740 O   0  0  0  0  0  0  0  0  0  0  0  0
    8.1120   -1.8690   25.5810 C   0  0  0  0  0  0  0  0  0  0  0  0
    7.9260   -4.3520   27.3870 C   0  0  0  0  0  0  0  0  0  0  0  0
    5.7220    0.9650   18.5890 C   0  0  0  0  0  0  0  0  0  0  0  0
    9.0370   -1.0430   23.5160 C   0  0  0  0  0  0  0  0  0  0  0  0
    9.4620   -2.3310   23.2050 C   0  0  0  0  0  0  0  0  0  0  0  0
    9.2350   -3.3720   24.0830 C   0  0  0  0  0  0  0  0  0  0  0  0
   12.2790   -0.7590   22.2850 C   0  0  0  0  0  0  0  0  0  0  0  0
   11.8470    0.0370   23.3060 C   0  0  0  0  0  0  0  0  0  0  0  0
    5.2300    1.0270   20.9700 C   0  0  0  0  0  0  0  0  0  0  0  0
    4.5840    1.7130   18.3090 C   0  0  0  0  0  0  0  0  0  0  0  0
   10.5890    0.8560   23.1770 C   0  0  0  0  0  0  0  0  0  0  0  0
   13.6270   -1.0770   24.3300 C   0  0  0  0  0  0  0  0  0  0  0  0
    4.0870    1.7610   20.6790 C   0  0  0  0  0  0  0  0  0  0  0  0
    8.8880    0.3950   21.5150 C   0  0  0  0  0  0  0  0  0  0  0  0
    6.9720   -6.2400   28.7500 C   0  0  0  0  0  0  0  0  0  0  0  0
    9.4530    0.0650   22.7130 N   0  0  0  0  0  0  0  0  0  0  0  0
    7.1670   -3.5060   27.8530 O   0  0  0  0  0  0  0  0  0  0  0  0
    8.3260   -0.8270   24.6940 C   0  0  0  0  0  0  0  0  0  0  0  0
    8.5960   -3.1430   25.2960 C   0  0  0  0  0  0  0  0  0  0  0  0
    7.9960   -0.6610   20.8570 C   0  0  0  0  0  0  0  0  0  0  0  0
    6.0310    0.6370   19.9060 C   0  0  0  0  0  0  0  0  0  0  0  0
    6.6720    0.4050   17.7630 N   0  0  0  0  0  0  0  0  0  0  0  0
  4  3  1  0
 10  5  1  0
 10  2  1  0
 13 12  2  0
 14 13  1  0
 15  1  1  0
 16 15  2  0
 16  6  1  0
 18  7  1  0
 18 11  2  0
 19 16  1  0
 20  6  2  0
 20  1  1  0
 21 17  1  0
 21  7  2  0
 22  8  2  0
 23  5  1  0
 24 22  1  0
 24 19  1  0
 24 12  1  0
 25 10  2  0
 26 12  1  0
 26  9  2  0
 27 14  2  0
 27  9  1  0
 27  2  1  0
 28 22  1  0
 28  4  1  0
 29 17  2  0
 29 11  1  0
 29  4  1  0
 30 11  1  0
 30  3  2  0
M  END
