
     RDKit          3D

  9  9  0  0  0  0  0  0  0  0999 V2000
   16.6410  -14.8460   -5.0370 C   0  0  0  0  0  0  0  0  0  0  0  0
   18.9630  -15.0770   -4.6880 N   0  0  0  0  0  0  0  0  0  0  0  0
   18.2420  -13.4130   -6.2230 O   0  0  0  0  0  0  0  0  0  0  0  0
   18.0320  -14.3210   -5.4230 C   0  0  0  0  0  0  0  0  0  0  0  0
   18.8300  -16.4960   -2.9090 O   0  0  0  0  0  0  0  0  0  0  0  0
   18.3080  -16.0050   -3.8950 C   0  0  0  0  0  0  0  0  0  0  0  0
   16.9200  -16.2290   -4.4420 C   0  0  0  0  0  0  0  0  0  0  0  0
   20.4500  -15.0720   -4.6170 C   0  0  0  0  0  0  0  0  0  0  0  0
   21.2900  -13.9310   -5.1900 C   0  0  0  0  0  0  0  0  0  0  0  0
  4  3  2  0
  4  2  1  0
  4  1  1  0
  6  5  2  0
  6  2  1  0
  7  6  1  0
  7  1  1  0
  8  2  1  0
  9  8  1  0
M  END
