
     RDKit          3D

 10 10  0  0  0  0  0  0  0  0999 V2000
   22.9210  -20.2750   23.2960 N   0  0  0  0  0  0  0  0  0  0  0  0
   23.8760  -18.0570   23.9990 C   0  0  0  0  0  0  0  0  0  0  0  0
   22.9980  -18.8010   22.9830 C   0  0  0  0  0  0  0  0  0  0  0  0
   20.6830  -24.1520   24.0320 N   0  0  0  0  0  0  0  0  0  0  0  0
   21.6750  -20.6080   24.0600 C   0  0  0  0  0  0  0  0  0  0  0  0
   20.3130  -23.6840   22.8010 N   0  0  0  0  0  0  0  0  0  0  0  0
   21.2560  -22.0220   23.8730 C   0  0  2  0  0  0  0  0  0  0  0  0
   20.6490  -22.4540   22.6990 N   0  0  0  0  0  0  0  0  0  0  0  0
   21.2920  -23.1140   24.7470 C   0  0  0  0  0  0  0  0  0  0  0  0
   20.4670  -25.5430   24.4690 C   0  0  0  0  0  0  0  0  0  0  0  0
  3  2  1  0
  3  1  1  0
  5  1  1  0
  6  4  1  0
  7  5  1  1
  8  7  1  0
  8  6  1  0
  9  7  1  0
  9  4  1  0
 10  4  1  0
M  END
$$$$
