
     RDKit          3D

 18 19  0  0  0  0  0  0  0  0999 V2000
   10.5130    0.7520   22.9580 C   0  0  0  0  0  0  0  0  0  0  0  0
    6.3510    0.5570   17.4010 N   0  0  0  0  0  0  0  0  0  0  0  0
   12.6510   -0.9380   22.5880 C   0  0  0  0  0  0  0  0  0  0  0  0
    5.2070    1.0020   19.9160 C   0  0  0  0  0  0  0  0  0  0  0  0
   12.8630    0.2950   23.1710 C   0  0  0  0  0  0  0  0  0  0  0  0
    4.5980    1.3070   21.2610 C   0  0  0  0  0  0  0  0  0  0  0  0
   10.3320   -0.4670   22.3130 C   0  0  0  0  0  0  0  0  0  0  0  0
    4.7620    1.6830   18.7880 C   0  0  0  0  0  0  0  0  0  0  0  0
    9.0730   -0.8260   21.7920 N   0  0  0  0  0  0  0  0  0  0  0  0
    6.8270   -0.6690   20.9380 C   0  0  0  0  0  0  0  0  0  0  0  0
    8.3730    1.1660   20.9490 O   0  0  0  0  0  0  0  0  0  0  0  0
    6.2460    0.0710   19.7560 C   0  0  0  0  0  0  0  0  0  0  0  0
    8.1650   -0.0140   21.2160 C   0  0  0  0  0  0  0  0  0  0  0  0
    6.7600   -0.1100   18.4840 C   0  0  0  0  0  0  0  0  0  0  0  0
   11.7800    1.1340   23.3690 C   0  0  0  0  0  0  0  0  0  0  0  0
   11.4080   -1.3280   22.1350 C   0  0  0  0  0  0  0  0  0  0  0  0
    5.3640    1.4440   17.5690 C   0  0  0  0  0  0  0  0  0  0  0  0
   13.9480   -2.0930   22.5680 Cl  0  0  0  0  0  0  0  0  0  0  0  0
  5  3  1  0
  6  4  1  0
  7  1  2  0
  8  4  1  0
  9  7  1  0
 12  4  2  0
 12 10  1  0
 13 11  2  0
 13 10  1  0
 13  9  1  0
 14 12  1  0
 14  2  2  0
 15  1  1  0
 15  5  2  0
 16  7  1  0
 16  3  2  0
 17  8  2  0
 17  2  1  0
 18  3  1  0
M  END
