
     RDKit          3D

 17 17  0  0  0  0  0  0  0  0999 V2000
    7.1030   -3.3800   26.5130 N   0  0  0  0  0  0  0  0  0  0  0  0
    9.0780   -4.7860   27.0660 C   0  0  0  0  0  0  0  0  0  0  0  0
    5.0980   -3.2490   25.4690 O   0  0  0  0  0  0  0  0  0  0  0  0
    7.6350   -4.4540   27.3900 C   0  0  2  0  0  0  0  0  0  0  0  0
    6.5490   -4.2970   20.1000 C   0  0  0  0  0  0  0  0  0  0  0  0
    7.1000   -3.1620   19.2790 C   0  0  0  0  0  0  0  0  0  0  0  0
    6.7450   -5.6800   27.4150 C   0  0  0  0  0  0  0  0  0  0  0  0
    7.6230   -2.0370   26.7860 C   0  0  0  0  0  0  0  0  0  0  0  0
    6.2810   -3.6050   25.4680 C   0  0  0  0  0  0  0  0  0  0  0  0
    6.9300   -4.1720   24.2170 C   0  0  1  0  0  0  0  0  0  0  0  0
    5.9860   -5.1040   23.4540 C   0  0  0  0  0  0  0  0  0  0  0  0
    6.6450   -5.5980   22.1910 C   0  0  0  0  0  0  0  0  0  0  0  0
    7.9780   -3.5540   22.0150 C   0  0  0  0  0  0  0  0  0  0  0  0
    7.3770   -3.0290   23.2970 C   0  0  0  0  0  0  0  0  0  0  0  0
    7.0400   -4.4640   21.3490 N   0  0  0  0  0  0  0  0  0  0  0  0
    5.6900   -5.0310   19.6310 O   0  0  0  0  0  0  0  0  0  0  0  0
    8.6770   -3.5870   18.4880 S   0  0  0  0  0  0  0  0  0  0  0  0
  4  2  1  6
  4  1  1  0
  6  5  1  0
  7  4  1  0
  8  1  1  0
  9  3  2  0
  9  1  1  0
 10  9  1  1
 11 10  1  0
 12 11  1  0
 14 13  1  0
 14 10  1  0
 15 12  1  0
 15  5  1  0
 15 13  1  0
 16  5  2  0
  6 17  1  0
M  END
