
     RDKit          3D

 15 15  0  0  0  0  0  0  0  0999 V2000
    8.7580   -2.4800   21.5960 N   0  0  0  0  0  0  0  0  0  0  0  0
    8.7930   -2.8390   23.9950 C   0  0  0  0  0  0  0  0  0  0  0  0
    7.5260   -3.4800   23.9110 O   0  0  0  0  0  0  0  0  0  0  0  0
   13.9600   -1.7080   21.3450 Cl  0  0  0  0  0  0  0  0  0  0  0  0
    8.9810   -1.8170   22.8790 C   0  0  1  0  0  0  0  0  0  0  0  0
    8.0200   -0.6470   20.5190 O   0  0  0  0  0  0  0  0  0  0  0  0
    8.2540   -1.8530   20.5290 C   0  0  0  0  0  0  0  0  0  0  0  0
    8.0190   -2.6790   19.2760 C   0  0  0  0  0  0  0  0  0  0  0  0
   10.3540   -1.1800   22.9770 C   0  0  0  0  0  0  0  0  0  0  0  0
   10.5720   -0.0760   23.7930 C   0  0  0  0  0  0  0  0  0  0  0  0
   11.8030    0.5600   23.8090 C   0  0  0  0  0  0  0  0  0  0  0  0
   12.8430    0.0910   23.0200 C   0  0  0  0  0  0  0  0  0  0  0  0
   12.6330   -1.0330   22.2500 C   0  0  0  0  0  0  0  0  0  0  0  0
   11.4090   -1.6690   22.2110 C   0  0  0  0  0  0  0  0  0  0  0  0
    7.2910   -4.3130   19.5710 S   0  0  0  0  0  0  0  0  0  0  0  0
  3  2  1  0
  5  1  1  0
  5  2  1  1
  7  6  2  0
  7  1  1  0
  8  7  1  0
  9  5  1  0
 10  9  2  0
 11 10  1  0
 12 11  2  0
 13  4  1  0
 13 12  1  0
 14  9  1  0
 14 13  2  0
  8 15  1  0
M  END
