
     RDKit          3D

 20 21  0  0  0  0  0  0  0  0999 V2000
    6.0560   -5.2660   24.2670 N   0  0  0  0  0  0  0  0  0  0  0  0
    1.0120   -1.0420   25.7960 C   0  0  0  0  0  0  0  0  0  0  0  0
    6.4560   -4.7670   26.6380 O   0  0  0  0  0  0  0  0  0  0  0  0
    2.1030   -2.0750   25.7930 C   0  0  0  0  0  0  0  0  0  0  0  0
    6.8830   -5.1440   21.5870 N   0  0  0  0  0  0  0  0  0  0  0  0
    4.7760   -6.4670   25.9990 O   0  0  0  0  0  0  0  0  0  0  0  0
    3.3470   -1.7940   26.3330 C   0  0  0  0  0  0  0  0  0  0  0  0
    5.6140   -5.1040   19.7200 O   0  0  0  0  0  0  0  0  0  0  0  0
    4.3610   -2.7340   26.3360 C   0  0  0  0  0  0  0  0  0  0  0  0
    4.1300   -3.9810   25.7750 C   0  0  0  0  0  0  0  0  0  0  0  0
    2.8920   -4.2870   25.2350 C   0  0  0  0  0  0  0  0  0  0  0  0
    1.8940   -3.3310   25.2460 C   0  0  0  0  0  0  0  0  0  0  0  0
    5.2740   -5.9400   23.2200 C   0  0  0  0  0  0  0  0  0  0  0  0
    6.2130   -6.3350   22.1100 C   0  0  0  0  0  0  0  0  0  0  0  0
    7.6320   -4.4240   22.6220 C   0  0  0  0  0  0  0  0  0  0  0  0
    6.7140   -4.0510   23.7590 C   0  0  0  0  0  0  0  0  0  0  0  0
    6.4880   -4.6020   20.4140 C   0  0  0  0  0  0  0  0  0  0  0  0
    7.1460   -3.3190   19.9810 C   0  0  0  0  0  0  0  0  0  0  0  0
    5.4070   -5.2040   25.7710 S   0  0  0  0  0  0  0  0  0  0  0  0
    8.3970   -3.4420   18.6680 S   0  0  0  0  0  0  0  0  0  0  0  0
  4  2  1  0
  7  4  2  0
  9  7  1  0
 10  9  2  0
 11 10  1  0
 12 11  2  0
 12  4  1  0
 13  1  1  0
 14 13  1  0
 14  5  1  0
 15  5  1  0
 16 15  1  0
 16  1  1  0
 17  8  2  0
 17  5  1  0
 18 17  1  0
 19  6  2  0
 19 10  1  0
 19  3  2  0
 19  1  1  0
 18 20  1  0
M  END
