
     RDKit          3D

 22 23  0  0  0  0  0  0  0  0999 V2000
    7.2390   -0.4900   20.9720 N   0  0  0  0  0  0  0  0  0  0  0  0
    8.0200   -0.6330   26.3380 C   0  0  0  0  0  0  0  0  0  0  0  0
    8.4430   -1.0580   25.0200 O   0  0  0  0  0  0  0  0  0  0  0  0
   13.7990   -1.8280   21.3870 Cl  0  0  0  0  0  0  0  0  0  0  0  0
    8.1710   -0.2330   24.0060 C   0  0  0  0  0  0  0  0  0  0  0  0
    6.4280    0.6210   17.5390 N   0  0  0  0  0  0  0  0  0  0  0  0
    7.4750    0.7420   24.0890 O   0  0  0  0  0  0  0  0  0  0  0  0
    8.9040   -0.6720   22.7450 C   0  0  1  0  0  0  0  0  0  0  0  0
    8.8430    1.1040   21.0880 O   0  0  0  0  0  0  0  0  0  0  0  0
    8.3320    0.0760   21.5160 C   0  0  0  0  0  0  0  0  0  0  0  0
    6.5370    0.1030   19.8880 C   0  0  0  0  0  0  0  0  0  0  0  0
    7.0110    0.0120   18.5780 C   0  0  0  0  0  0  0  0  0  0  0  0
    5.3330    1.3500   17.7900 C   0  0  0  0  0  0  0  0  0  0  0  0
    4.7870    1.4970   19.0510 C   0  0  0  0  0  0  0  0  0  0  0  0
    5.3840    0.8670   20.1380 C   0  0  0  0  0  0  0  0  0  0  0  0
    4.8310    1.0470   21.5290 C   0  0  0  0  0  0  0  0  0  0  0  0
   10.3940   -0.3570   22.8610 C   0  0  0  0  0  0  0  0  0  0  0  0
   10.8290    0.8100   23.4760 C   0  0  0  0  0  0  0  0  0  0  0  0
   12.1720    1.1520   23.4770 C   0  0  0  0  0  0  0  0  0  0  0  0
   13.1040    0.3240   22.8650 C   0  0  0  0  0  0  0  0  0  0  0  0
   12.6610   -0.8310   22.2530 C   0  0  0  0  0  0  0  0  0  0  0  0
   11.3290   -1.1910   22.2570 C   0  0  0  0  0  0  0  0  0  0  0  0
  3  2  1  0
  5  3  1  0
  7  5  2  0
  8  5  1  1
 10  9  2  0
 10  1  1  0
 10  8  1  0
 11  1  1  0
 12 11  1  0
 12  6  2  0
 13  6  1  0
 14 13  2  0
 15 14  1  0
 15 11  2  0
 16 15  1  0
 17  8  1  0
 18 17  2  0
 19 18  1  0
 20 19  2  0
 21  4  1  0
 21 20  1  0
 22 17  1  0
 22 21  2  0
M  END
