
     RDKit          3D

 21 22  0  0  0  0  0  0  0  0999 V2000
    5.8430   -5.4420   24.2820 N   0  0  0  0  0  0  0  0  0  0  0  0
    0.7450   -1.4700   26.1140 C   0  0  0  0  0  0  0  0  0  0  0  0
    4.6250   -6.9170   25.8320 O   0  0  0  0  0  0  0  0  0  0  0  0
    1.8210   -2.5010   26.0210 C   0  0  0  0  0  0  0  0  0  0  0  0
    5.8910   -6.0020   21.9230 C   0  0  0  0  0  0  0  0  0  0  0  0
    5.0000   -5.7610   23.1160 C   0  0  0  0  0  0  0  0  0  0  0  0
    6.8490   -4.1860   20.5180 C   0  0  2  0  0  0  0  0  0  0  0  0
    8.1440   -3.4640   20.2460 C   0  0  0  0  0  0  0  0  0  0  0  0
    3.1290   -2.1910   26.3200 C   0  0  0  0  0  0  0  0  0  0  0  0
    4.1240   -3.1380   26.2380 C   0  0  0  0  0  0  0  0  0  0  0  0
    3.8230   -4.4370   25.8470 C   0  0  0  0  0  0  0  0  0  0  0  0
    2.4970   -4.7920   25.5330 C   0  0  0  0  0  0  0  0  0  0  0  0
    2.0300   -6.1530   25.0950 C   0  0  0  0  0  0  0  0  0  0  0  0
    1.5310   -3.7960   25.6340 C   0  0  0  0  0  0  0  0  0  0  0  0
    6.6630   -4.2450   24.0460 C   0  0  0  0  0  0  0  0  0  0  0  0
    7.5620   -4.5080   22.8710 C   0  0  0  0  0  0  0  0  0  0  0  0
    6.7630   -4.8490   21.6930 N   0  0  0  0  0  0  0  0  0  0  0  0
    6.1490   -5.1800   26.7070 O   0  0  0  0  0  0  0  0  0  0  0  0
    5.9630   -4.2050   19.6720 O   0  0  0  0  0  0  0  0  0  0  0  0
    5.1580   -5.5930   25.7620 S   0  0  2  0  0  0  0  0  0  0  0  0
    8.5230   -3.3990   18.4760 S   0  0  0  0  0  0  0  0  0  0  0  0
  4  2  1  0
  6  5  1  0
  6  1  1  0
  8  7  1  0
  9  4  1  0
 10  9  1  0
 11 10  1  0
 12 11  1  0
 13 12  1  0
 14 12  1  0
 14  4  1  0
 15  1  1  0
 16 15  1  0
 17  5  1  0
 17  7  1  0
 17 16  1  0
  7 19  1  6
 20  3  1  1
 20 11  1  0
 20 18  1  0
 20  1  1  0
  8 21  1  0
M  END
$$$$
