
     RDKit          3D

 17 18  0  0  0  0  0  0  0  0999 V2000
    9.4010   -0.8600   22.1770 N   0  0  0  0  0  0  0  0  0  0  0  0
    6.5700   -0.7940   22.3030 C   0  0  0  0  0  0  0  0  0  0  0  0
    9.2280    1.0640   21.0180 O   0  0  0  0  0  0  0  0  0  0  0  0
    7.2590   -0.2060   21.3330 C   0  0  0  0  0  0  0  0  0  0  0  0
    6.6570    0.4680   17.6840 N   0  0  0  0  0  0  0  0  0  0  0  0
    8.7080    0.0590   21.4870 C   0  0  0  0  0  0  0  0  0  0  0  0
   10.7430   -0.7320   22.5840 C   0  0  2  0  0  0  0  0  0  0  0  0
   11.1130    0.4410   23.2320 C   0  0  0  0  0  0  0  0  0  0  0  0
   12.4550    0.7470   23.3920 C   0  0  0  0  0  0  0  0  0  0  0  0
   13.4220   -0.1090   22.9250 C   0  0  0  0  0  0  0  0  0  0  0  0
   13.0590   -1.2950   22.3250 C   0  0  0  0  0  0  0  0  0  0  0  0
   11.7230   -1.6180   22.1630 C   0  0  0  0  0  0  0  0  0  0  0  0
    6.6090    0.2590   20.0790 C   0  0  0  0  0  0  0  0  0  0  0  0
    5.4240    0.9800   20.1140 C   0  0  0  0  0  0  0  0  0  0  0  0
    4.8680    1.4440   18.9390 C   0  0  0  0  0  0  0  0  0  0  0  0
    5.5180    1.1670   17.7540 C   0  0  0  0  0  0  0  0  0  0  0  0
    7.1810    0.0280   18.8310 C   0  0  0  0  0  0  0  0  0  0  0  0
  4  2  1  0
  6  4  1  0
  6  3  1  0
  6  1  1  0
  7  1  1  6
  8  7  1  0
  9  8  1  0
 10  9  1  0
 11 10  1  0
 12  7  1  0
 12 11  1  0
 13  4  1  0
 14 13  1  0
 15 14  1  0
 16 15  1  0
 16  5  1  0
 17 13  1  0
 17  5  1  0
M  END
$$$$
