
     RDKit          3D

 15 16  0  0  0  0  0  0  0  0999 V2000
   13.5930   -0.5450   21.3480 F   0  0  0  0  0  0  0  0  0  0  0  0
   12.7190   -1.3280   22.1100 C   0  0  0  0  0  0  0  0  0  0  0  0
   11.5210   -0.4910   22.4710 C   0  0  2  0  0  0  0  0  0  0  0  0
   10.5860   -0.8580   23.5750 C   0  0  0  0  0  0  0  0  0  0  0  0
   10.1710   -1.0940   22.1440 C   0  0  1  0  0  0  0  0  0  0  0  0
    9.2420   -0.1100   21.4590 C   0  0  0  0  0  0  0  0  0  0  0  0
    9.6020    1.0320   21.1920 O   0  0  0  0  0  0  0  0  0  0  0  0
    8.0390   -0.6230   21.1150 N   0  0  0  0  0  0  0  0  0  0  0  0
    7.1310   -0.0600   20.1870 C   0  0  0  0  0  0  0  0  0  0  0  0
    5.9840    0.6140   20.6460 C   0  0  0  0  0  0  0  0  0  0  0  0
    5.6710    0.7500   22.1140 C   0  0  0  0  0  0  0  0  0  0  0  0
    7.3490   -0.1440   18.8110 C   0  0  0  0  0  0  0  0  0  0  0  0
    6.5250    0.3820   17.9000 N   0  0  0  0  0  0  0  0  0  0  0  0
    5.4400    1.0200   18.3490 C   0  0  0  0  0  0  0  0  0  0  0  0
    5.1350    1.1570   19.6890 C   0  0  0  0  0  0  0  0  0  0  0  0
  2  1  1  0
  3  2  1  1
  4  3  1  0
  5  4  1  0
  5  3  1  0
  5  6  1  6
  7  6  2  0
  8  6  1  0
  9  8  1  0
 10  9  2  0
 11 10  1  0
 12  9  1  0
 13 12  2  0
 14 13  1  0
 15 14  2  0
 15 10  1  0
M  END
