
     RDKit          3D

 13 13  0  0  0  0  0  0  0  0999 V2000
    6.9060    2.7020   -6.5300 N   0  0  0  0  0  0  0  0  0  0  0  0
    4.4670   -2.0050   -8.3630 C   0  0  0  0  0  0  0  0  0  0  0  0
    4.6700    2.3140   -5.7380 O   0  0  0  0  0  0  0  0  0  0  0  0
    5.9140   -1.7490   -8.1530 C   0  0  0  0  0  0  0  0  0  0  0  0
    6.7830   -2.8190   -8.3790 C   0  0  0  0  0  0  0  0  0  0  0  0
    8.1570   -2.6290   -8.2250 C   0  0  0  0  0  0  0  0  0  0  0  0
    8.6900   -1.3910   -7.8300 C   0  0  0  0  0  0  0  0  0  0  0  0
    7.8190   -0.3320   -7.6050 C   0  0  0  0  0  0  0  0  0  0  0  0
    6.4300   -0.4820   -7.7660 C   0  0  0  0  0  0  0  0  0  0  0  0
    5.5720    0.7510   -7.5710 C   0  0  0  0  0  0  0  0  0  0  0  0
    8.9830   -3.6370   -8.4900 F   0  0  0  0  0  0  0  0  0  0  0  0
    6.4710    0.7280   -5.1500 O   0  0  0  0  0  0  0  0  0  0  0  0
    5.8340    1.5850   -6.0800 S   0  0  1  0  0  0  0  0  0  0  0  0
  4  2  1  0
  5  4  2  0
  6  5  1  0
  7  6  2  0
  8  7  1  0
  9  8  2  0
  9  4  1  0
 10  9  1  0
 11  6  1  0
 13  3  2  0
 13 10  1  0
 13  1  1  6
 13 12  2  0
M  END
