
     RDKit          3D

 29 32  0  0  0  0  0  0  0  0999 V2000
    6.5890    1.0860   16.8330 O   0  0  0  0  0  0  0  0  0  0  0  0
    5.9110    0.8600   17.8400 C   0  0  0  0  0  0  0  0  0  0  0  0
    6.1240   -0.2520   18.7070 C   0  0  0  0  0  0  0  0  0  0  0  0
    4.9280    1.7350   18.2200 N   0  0  0  0  0  0  0  0  0  0  0  0
    4.1900    1.6280   19.3910 C   0  0  0  0  0  0  0  0  0  0  0  0
    4.4340    0.5520   20.2660 C   0  0  0  0  0  0  0  0  0  0  0  0
    3.7240    0.4770   21.4640 C   0  0  0  0  0  0  0  0  0  0  0  0
    2.7520    1.4190   21.7570 C   0  0  0  0  0  0  0  0  0  0  0  0
    2.4930    2.4510   20.8800 C   0  0  0  0  0  0  0  0  0  0  0  0
    3.2120    2.5710   19.7020 C   0  0  0  0  0  0  0  0  0  0  0  0
    5.4280   -0.4370   19.8620 C   0  0  0  0  0  0  0  0  0  0  0  0
    5.6270   -1.7090   20.6190 C   0  0  0  0  0  0  0  0  0  0  0  0
    5.0790   -2.7340   20.2310 O   0  0  0  0  0  0  0  0  0  0  0  0
    6.4060   -1.6910   21.7110 N   0  0  0  0  0  0  0  0  0  0  0  0
    6.4160   -2.7740   22.7030 C   0  0  0  0  0  0  0  0  0  0  0  0
    7.8320   -3.3050   22.8890 C   0  0  0  0  0  0  0  0  0  0  0  0
    7.3440   -0.6010   22.0090 C   0  0  0  0  0  0  0  0  0  0  0  0
    8.7460   -1.1560   22.1430 C   0  0  0  0  0  0  0  0  0  0  0  0
    8.7630   -2.2040   23.1710 N   0  0  0  0  0  0  0  0  0  0  0  0
    9.9460   -2.4610   23.8640 C   0  0  0  0  0  0  0  0  0  0  0  0
    9.9580   -3.3610   24.9390 C   0  0  0  0  0  0  0  0  0  0  0  0
   11.1350   -3.6080   25.6310 C   0  0  0  0  0  0  0  0  0  0  0  0
   12.3050   -2.9720   25.2600 C   0  0  0  0  0  0  0  0  0  0  0  0
   11.1380   -1.8260   23.4990 C   0  0  0  0  0  0  0  0  0  0  0  0
   12.3170   -2.0910   24.1870 C   0  0  0  0  0  0  0  0  0  0  0  0
   13.5940   -1.4710   23.7390 C   0  0  2  0  0  0  0  0  0  0  0  0
   14.5640   -2.3630   23.6470 F   0  0  0  0  0  0  0  0  0  0  0  0
   14.0160   -0.5420   24.5830 F   0  0  0  0  0  0  0  0  0  0  0  0
   13.5010   -0.8770   22.5370 F   0  0  0  0  0  0  0  0  0  0  0  0
  2  1  2  0
  3  2  1  0
  4  2  1  0
  5  4  1  0
  6  5  2  0
  7  6  1  0
  8  7  2  0
  9  8  1  0
 10  9  2  0
 10  5  1  0
 11  6  1  0
 11  3  2  0
 12 11  1  0
 13 12  2  0
 14 12  1  0
 15 14  1  0
 16 15  1  0
 17 14  1  0
 18 17  1  0
 19 18  1  0
 19 16  1  0
 20 19  1  0
 21 20  2  0
 22 21  1  0
 23 22  2  0
 24 20  1  0
 25 24  2  0
 25 23  1  0
 26 25  1  0
 26 27  1  6
 28 26  1  0
 29 26  1  0
M  END
