
     RDKit          3D

 20 22  0  0  0  0  0  0  0  0999 V2000
    6.9430   -3.2740   20.0790 C   0  0  0  0  0  0  0  0  0  0  0  0
    7.4470   -2.6450   18.8100 C   0  0  0  0  0  0  0  0  0  0  0  0
    6.6270   -3.1050   22.5050 C   0  0  0  0  0  0  0  0  0  0  0  0
    7.6090   -3.6490   23.5050 C   0  0  0  0  0  0  0  0  0  0  0  0
    7.1470   -4.4820   24.5260 C   0  0  0  0  0  0  0  0  0  0  0  0
    8.0220   -4.9990   25.4630 C   0  0  0  0  0  0  0  0  0  0  0  0
    9.3670   -4.6950   25.3930 C   0  0  0  0  0  0  0  0  0  0  0  0
    9.8390   -3.8700   24.3840 C   0  0  0  0  0  0  0  0  0  0  0  0
    8.9680   -3.3270   23.4310 C   0  0  0  0  0  0  0  0  0  0  0  0
    9.5150   -2.4330   22.3230 C   0  0  2  0  0  0  0  0  0  0  0  0
   10.4870   -1.3800   22.8160 C   0  0  0  0  0  0  0  0  0  0  0  0
   11.7690   -1.2910   22.2900 C   0  0  0  0  0  0  0  0  0  0  0  0
   12.6570   -0.3290   22.7430 C   0  0  0  0  0  0  0  0  0  0  0  0
   12.2750    0.5620   23.7200 C   0  0  0  0  0  0  0  0  0  0  0  0
   11.0080    0.4920   24.2490 C   0  0  0  0  0  0  0  0  0  0  0  0
   10.1180   -0.4730   23.8010 C   0  0  0  0  0  0  0  0  0  0  0  0
    8.4050   -1.7800   21.5040 C   0  0  0  0  0  0  0  0  0  0  0  0
    7.3160   -2.7300   21.2690 N   0  0  0  0  0  0  0  0  0  0  0  0
    6.2070   -4.2490   20.0070 O   0  0  0  0  0  0  0  0  0  0  0  0
    9.0270   -3.4270   18.4080 S   0  0  0  0  0  0  0  0  0  0  0  0
  2  1  1  0
  4  3  1  0
  5  4  2  0
  6  5  1  0
  7  6  2  0
  8  7  1  0
  9  8  2  0
  9  4  1  0
 10  9  1  0
 10 11  1  1
 12 11  2  0
 13 12  1  0
 14 13  2  0
 15 14  1  0
 16 11  1  0
 16 15  2  0
 17 10  1  0
 18 17  1  0
 18  1  1  0
 18  3  1  0
 19  1  2  0
  2 20  1  0
M  END
