
     RDKit          3D

 17 17  0  0  0  0  0  0  0  0999 V2000
    7.0330   -3.3280   26.5010 N   0  0  0  0  0  0  0  0  0  0  0  0
    9.0110   -4.7280   27.0590 C   0  0  0  0  0  0  0  0  0  0  0  0
    5.0280   -3.2030   25.4560 O   0  0  0  0  0  0  0  0  0  0  0  0
    7.5670   -4.3980   27.3810 C   0  0  0  0  0  0  0  0  0  0  0  0
    6.9740   -4.4240   21.3400 N   0  0  0  0  0  0  0  0  0  0  0  0
    5.6260   -4.9990   19.6230 O   0  0  0  0  0  0  0  0  0  0  0  0
    6.6790   -5.6260   27.4080 C   0  0  0  0  0  0  0  0  0  0  0  0
    7.5500   -1.9830   26.7710 C   0  0  0  0  0  0  0  0  0  0  0  0
    6.2110   -3.5570   25.4560 C   0  0  0  0  0  0  0  0  0  0  0  0
    6.8620   -4.1260   24.2070 C   0  0  0  0  0  0  0  0  0  0  0  0
    5.9200   -5.0620   23.4460 C   0  0  0  0  0  0  0  0  0  0  0  0
    6.5810   -5.5580   22.1840 C   0  0  0  0  0  0  0  0  0  0  0  0
    7.9100   -3.5110   22.0040 C   0  0  0  0  0  0  0  0  0  0  0  0
    7.3070   -2.9840   23.2850 C   0  0  0  0  0  0  0  0  0  0  0  0
    6.4840   -4.2610   20.0900 C   0  0  0  0  0  0  0  0  0  0  0  0
    7.0320   -3.1270   19.2670 C   0  0  0  0  0  0  0  0  0  0  0  0
    8.6100   -3.5520   18.4770 S   0  0  0  0  0  0  0  0  0  0  0  0
  4  2  1  0
  4  1  1  0
  7  4  1  0
  8  1  1  0
  9  3  2  0
  9  1  1  0
 10  9  1  0
 11 10  1  0
 12  5  1  0
 12 11  1  0
 13  5  1  0
 14 13  1  0
 14 10  1  0
 15  6  2  0
 15  5  1  0
 16 15  1  0
 16 17  1  0
M  END
