
     RDKit          3D

 29 30  0  0  0  0  0  0  0  0999 V2000
    6.2800    3.1210   23.1240 C   0  0  0  0  0  0  0  0  0  0  0  0
    5.9510    4.0970   22.2010 C   0  0  0  0  0  0  0  0  0  0  0  0
    4.6050    4.3170   21.9100 C   0  0  0  0  0  0  0  0  0  0  0  0
    3.6100    3.5760   22.5420 C   0  0  0  0  0  0  0  0  0  0  0  0
    3.9550    2.5950   23.4680 C   0  0  0  0  0  0  0  0  0  0  0  0
    5.2900    2.3660   23.7630 C   0  0  0  0  0  0  0  0  0  0  0  0
    7.7560    2.8860   23.4630 C   0  0  0  0  0  0  0  0  0  0  0  0
    8.6040    3.1240   22.3670 O   0  0  0  0  0  0  0  0  0  0  0  0
    9.0220    1.8670   21.8730 C   0  0  0  0  0  0  0  0  0  0  0  0
    8.6880    1.5990   20.7760 O   0  0  0  0  0  0  0  0  0  0  0  0
    9.8040    0.9160   22.6950 N   0  0  0  0  0  0  0  0  0  0  0  0
   10.0410   -0.4050   22.1580 C   0  0  1  0  0  0  0  0  0  0  0  0
   10.6770   -1.3880   23.0930 C   0  0  0  0  0  0  0  0  0  0  0  0
   12.1900   -1.3790   22.8700 C   0  0  1  0  0  0  0  0  0  0  0  0
   12.7180    0.0350   22.9800 C   0  0  0  0  0  0  0  0  0  0  0  0
   12.7710   -2.2080   24.0130 C   0  0  0  0  0  0  0  0  0  0  0  0
    8.6470   -0.9820   21.8210 C   0  0  0  0  0  0  0  0  0  0  0  0
    7.7910   -0.8630   22.6380 O   0  0  0  0  0  0  0  0  0  0  0  0
    8.4170   -1.6420   20.5200 N   0  0  0  0  0  0  0  0  0  0  0  0
    7.1090   -2.1880   20.0820 C   0  0  2  0  0  0  0  0  0  0  0  0
    7.4450   -3.6270   19.6250 C   0  0  0  0  0  0  0  0  0  0  0  0
    6.3340   -4.4870   19.7400 O   0  0  0  0  0  0  0  0  0  0  0  0
    6.5000   -1.3790   18.9320 C   0  0  0  0  0  0  0  0  0  0  0  0
    6.2460    0.1700   19.2280 C   0  0  2  0  0  0  0  0  0  0  0  0
    5.0470    0.2620   20.1970 C   0  0  0  0  0  0  0  0  0  0  0  0
    4.1820    1.3450   19.7020 C   0  0  0  0  0  0  0  0  0  0  0  0
    4.5240    1.5640   18.2450 N   0  0  0  0  0  0  0  0  0  0  0  0
    5.8390    0.8520   18.0070 C   0  0  0  0  0  0  0  0  0  0  0  0
    6.3920    0.8350   16.9620 O   0  0  0  0  0  0  0  0  0  0  0  0
  2  1  1  0
  3  2  1  0
  4  3  1  0
  5  4  1  0
  6  5  1  0
  6  1  1  0
  7  1  1  0
  8  7  1  0
  9  8  1  0
 10  9  1  0
 11  9  1  0
 12 11  1  0
 12 13  1  1
 14 13  1  0
 14 15  1  1
 16 14  1  0
 17 12  1  0
 18 17  1  0
 19 17  1  0
 20 19  1  0
 20 21  1  6
 22 21  1  0
 23 20  1  0
 24 23  1  6
 25 24  1  0
 26 25  1  0
 27 26  1  0
 28 27  1  0
 28 24  1  0
 29 28  1  0
M  END
