
     RDKit          3D

 21 23  0  0  0  0  0  0  0  0999 V2000
    7.3500   -0.8380   20.6880 N   0  0  0  0  0  0  0  0  0  0  0  0
   12.6560   -0.9660   22.2440 C   0  0  0  0  0  0  0  0  0  0  0  0
    8.8920    0.7890   21.0230 O   0  0  0  0  0  0  0  0  0  0  0  0
   13.8820   -1.6310   21.2010 Cl  0  0  0  0  0  0  0  0  0  0  0  0
   13.0140   -0.0450   23.2070 C   0  0  0  0  0  0  0  0  0  0  0  0
    6.3190    0.4240   17.4140 N   0  0  0  0  0  0  0  0  0  0  0  0
   12.0240    0.4760   24.0250 C   0  0  0  0  0  0  0  0  0  0  0  0
   10.7020    0.0990   23.8510 C   0  0  0  0  0  0  0  0  0  0  0  0
   10.3440   -0.7940   22.8510 C   0  0  1  0  0  0  0  0  0  0  0  0
    8.8910   -1.0740   22.5390 C   0  0  0  0  0  0  0  0  0  0  0  0
    8.3980   -0.2880   21.3380 C   0  0  0  0  0  0  0  0  0  0  0  0
    6.5730   -0.1680   19.7180 C   0  0  2  0  0  0  0  0  0  0  0  0
    6.9400   -0.2560   18.3810 C   0  0  0  0  0  0  0  0  0  0  0  0
    5.3040    1.2190   17.7680 C   0  0  0  0  0  0  0  0  0  0  0  0
    4.8580    1.3890   19.0600 C   0  0  2  0  0  0  0  0  0  0  0  0
    3.7770    2.3930   19.3800 C   0  0  0  0  0  0  0  0  0  0  0  0
    3.0660    2.0820   20.6770 C   0  0  0  0  0  0  0  0  0  0  0  0
    4.0720    1.8900   21.7960 C   0  0  0  0  0  0  0  0  0  0  0  0
    5.0250    0.7340   21.5100 C   0  0  0  0  0  0  0  0  0  0  0  0
    5.4940    0.6600   20.0730 C   0  0  0  0  0  0  0  0  0  0  0  0
   11.3440   -1.3530   22.0620 C   0  0  0  0  0  0  0  0  0  0  0  0
  4  2  1  0
  5  2  1  0
  7  5  1  0
  8  7  1  0
  9  8  1  0
  9 10  1  6
 11  3  1  0
 11  1  1  0
 11 10  1  0
 12  1  1  1
 13 12  1  0
 13  6  1  0
 14  6  1  0
 15 14  1  1
 16 15  1  0
 17 16  1  0
 18 17  1  0
 19 18  1  0
 20 19  1  0
 20 15  1  0
 20 12  1  0
 21  9  1  0
 21  2  1  0
M  END
$$$$
