
     RDKit          3D

 25 27  0  0  0  0  0  0  0  0999 V2000
    6.5690    1.0670   16.7780 O   0  0  0  0  0  0  0  0  0  0  0  0
    5.9810    0.8060   17.8330 C   0  0  1  0  0  0  0  0  0  0  0  0
    6.3670   -0.2410   18.7150 C   0  0  0  0  0  0  0  0  0  0  0  0
    4.9470    1.5990   18.2610 N   0  0  0  0  0  0  0  0  0  0  0  0
    4.3110    1.4660   19.4940 C   0  0  0  0  0  0  0  0  0  0  0  0
    4.7420    0.4710   20.3910 C   0  0  0  0  0  0  0  0  0  0  0  0
    4.1310    0.3680   21.6440 C   0  0  0  0  0  0  0  0  0  0  0  0
    3.0730    1.2020   21.9670 C   0  0  0  0  0  0  0  0  0  0  0  0
    2.6230    2.1420   21.0630 C   0  0  0  0  0  0  0  0  0  0  0  0
    3.2440    2.2910   19.8340 C   0  0  0  0  0  0  0  0  0  0  0  0
    5.7970   -0.4250   19.9330 C   0  0  1  0  0  0  0  0  0  0  0  0
    6.2190   -1.5810   20.7470 C   0  0  0  0  0  0  0  0  0  0  0  0
    5.4900   -2.5620   20.8840 O   0  0  0  0  0  0  0  0  0  0  0  0
    7.4080   -1.4760   21.3370 N   0  0  0  0  0  0  0  0  0  0  0  0
    7.9300   -2.5140   22.2110 C   0  0  0  0  0  0  0  0  0  0  0  0
    9.4270   -2.4670   22.2740 C   0  0  0  0  0  0  0  0  0  0  0  0
    9.8010   -1.1220   22.6110 O   0  0  0  0  0  0  0  0  0  0  0  0
   11.1330   -0.7820   22.6370 C   0  0  0  0  0  0  0  0  0  0  0  0
   11.4200    0.5060   23.1350 C   0  0  0  0  0  0  0  0  0  0  0  0
   10.3290    1.2360   23.5230 O   0  0  0  0  0  0  0  0  0  0  0  0
   10.5480    2.5650   24.0040 C   0  0  0  0  0  0  0  0  0  0  0  0
   12.1660   -1.5890   22.1740 C   0  0  0  0  0  0  0  0  0  0  0  0
   13.4650   -1.1060   22.1760 C   0  0  0  0  0  0  0  0  0  0  0  0
   13.7470    0.1570   22.6630 C   0  0  0  0  0  0  0  0  0  0  0  0
   12.7320    0.9630   23.1580 C   0  0  0  0  0  0  0  0  0  0  0  0
  2  1  1  1
  3  2  1  0
  4  2  1  0
  5  4  1  0
  6  5  1  0
  7  6  1  0
  8  7  1  0
  9  8  1  0
 10  9  1  0
 10  5  1  0
 11  6  1  0
 11  3  1  0
 11 12  1  6
 13 12  1  0
 14 12  1  0
 15 14  1  0
 16 15  1  0
 17 16  1  0
 18 17  1  0
 19 18  1  0
 20 19  1  0
 21 20  1  0
 22 18  1  0
 23 22  1  0
 24 23  1  0
 25 24  1  0
 25 19  1  0
M  END
$$$$
