
     RDKit          3D

 26 28  0  0  0  0  0  0  0  0999 V2000
    8.8470   -1.0840   27.9580 N   0  0  0  0  0  0  0  0  0  0  0  0
    6.5560   -0.4880   28.6360 C   0  0  0  0  0  0  0  0  0  0  0  0
    9.8110   -0.4460   27.1350 O   0  0  0  0  0  0  0  0  0  0  0  0
   13.8370   -1.7720   22.1430 Cl  0  0  0  0  0  0  0  0  0  0  0  0
    7.8400   -0.2640   27.9220 C   0  0  0  0  0  0  0  0  0  0  0  0
    6.9850   -0.7970   20.3590 N   0  0  0  0  0  0  0  0  0  0  0  0
   11.1900    1.0460   25.3350 O   0  0  0  0  0  0  0  0  0  0  0  0
    9.2390    0.6900   26.7120 C   0  0  0  0  0  0  0  0  0  0  0  0
    6.1630    0.8530   17.1790 N   0  0  0  0  0  0  0  0  0  0  0  0
    8.6640    0.6470   20.8540 O   0  0  0  0  0  0  0  0  0  0  0  0
    9.9920    1.6420   25.8480 C   0  0  0  0  0  0  0  0  0  0  0  0
    8.0400    0.8580   27.1530 N   0  0  0  0  0  0  0  0  0  0  0  0
   11.1090    0.2020   24.2550 C   0  0  0  0  0  0  0  0  0  0  0  0
   12.3300   -0.2310   23.7630 C   0  0  0  0  0  0  0  0  0  0  0  0
   12.3280   -1.1000   22.6890 C   0  0  0  0  0  0  0  0  0  0  0  0
   11.1590   -1.5040   22.0840 C   0  0  0  0  0  0  0  0  0  0  0  0
    9.9410   -1.0490   22.5730 C   0  0  0  0  0  0  0  0  0  0  0  0
    8.6500   -1.4980   21.9370 C   0  0  0  0  0  0  0  0  0  0  0  0
    8.1120   -0.4400   20.9970 C   0  0  0  0  0  0  0  0  0  0  0  0
    6.3060   -0.0090   19.4150 C   0  0  0  0  0  0  0  0  0  0  0  0
    6.7610    0.0890   18.1010 C   0  0  0  0  0  0  0  0  0  0  0  0
    5.0690    1.5320   17.5530 C   0  0  0  0  0  0  0  0  0  0  0  0
    4.5490    1.4960   18.8310 C   0  0  0  0  0  0  0  0  0  0  0  0
    5.1720    0.7230   19.8040 C   0  0  0  0  0  0  0  0  0  0  0  0
    4.6900    0.7510   21.2300 C   0  0  0  0  0  0  0  0  0  0  0  0
    9.9200   -0.1890   23.6620 C   0  0  0  0  0  0  0  0  0  0  0  0
  3  1  1  0
  5  2  1  0
  5  1  2  0
  8  3  1  0
 11  8  1  0
 11  7  1  0
 12  8  2  0
 12  5  1  0
 13  7  1  0
 14 13  2  0
 15 14  1  0
 15  4  1  0
 16 15  2  0
 17 16  1  0
 18 17  1  0
 19 10  2  0
 19  6  1  0
 19 18  1  0
 20  6  1  0
 21 20  1  0
 21  9  2  0
 22  9  1  0
 23 22  2  0
 24 23  1  0
 24 20  2  0
 25 24  1  0
 26 17  2  0
 26 13  1  0
M  END
