
     RDKit          3D

  9  9  0  0  0  0  0  0  0  0999 V2000
   16.6550  -14.6440   -5.3460 C   0  0  0  0  0  0  0  0  0  0  0  0
   18.9820  -14.9350   -5.1240 N   0  0  0  0  0  0  0  0  0  0  0  0
   18.2680  -12.9130   -6.0440 O   0  0  0  0  0  0  0  0  0  0  0  0
   18.0340  -14.0190   -5.5680 C   0  0  0  0  0  0  0  0  0  0  0  0
   19.0230  -16.9690   -4.0230 O   0  0  0  0  0  0  0  0  0  0  0  0
   18.4080  -16.1090   -4.6360 C   0  0  0  0  0  0  0  0  0  0  0  0
   16.9410  -16.1100   -5.0020 C   0  0  0  0  0  0  0  0  0  0  0  0
   20.4410  -14.7250   -5.1600 C   0  0  0  0  0  0  0  0  0  0  0  0
   20.8680  -13.2580   -5.1340 C   0  0  0  0  0  0  0  0  0  0  0  0
  4  3  2  0
  4  2  1  0
  4  1  1  0
  6  5  2  0
  6  2  1  0
  7  6  1  0
  7  1  1  0
  8  2  1  0
  9  8  1  0
M  END
