
     RDKit          3D

 15 15  0  0  0  0  0  0  0  0999 V2000
   16.2690    2.3550  -14.6730 C   0  0  0  0  0  0  0  0  0  0  0  0
   16.8180    3.2930  -12.6460 C   0  0  0  0  0  0  0  0  0  0  0  0
   17.6750    2.4420  -11.7220 C   0  0  0  0  0  0  0  0  0  0  0  0
   18.7680    1.7630  -12.2230 C   0  0  0  0  0  0  0  0  0  0  0  0
   19.5420    0.9820  -11.3850 C   0  0  0  0  0  0  0  0  0  0  0  0
   19.2360    0.8740  -10.0440 C   0  0  0  0  0  0  0  0  0  0  0  0
   18.1460    1.5540   -9.5320 C   0  0  0  0  0  0  0  0  0  0  0  0
   16.1100    3.6620   -7.7130 C   0  0  0  0  0  0  0  0  0  0  0  0
   17.3710    2.3370  -10.3800 C   0  0  0  0  0  0  0  0  0  0  0  0
   17.8440    1.4170   -8.1140 N   0  0  0  0  0  0  0  0  0  0  0  0
   17.0820    3.2700  -14.0080 O   0  0  0  0  0  0  0  0  0  0  0  0
   15.9200    3.9580  -12.2520 O   0  0  0  0  0  0  0  0  0  0  0  0
   17.2940    2.3660   -5.7270 O   0  0  0  0  0  0  0  0  0  0  0  0
   18.6890    3.6390   -6.9840 O   0  0  0  0  0  0  0  0  0  0  0  0
   17.5190    2.7720   -7.1270 S   0  0  2  0  0  0  0  0  0  0  0  0
  3  2  1  0
  4  3  2  0
  5  4  1  0
  6  5  2  0
  7  6  1  0
  9  3  1  0
  9  7  2  0
 10  7  1  0
 11  1  1  0
 11  2  1  0
 12  2  2  0
 15  8  1  6
 15 14  2  0
 15 13  2  0
 15 10  1  0
M  END
