
     RDKit          3D

 16 17  0  0  0  0  0  0  0  0999 V2000
    6.9370   -2.5500   20.8340 N   0  0  0  0  0  0  0  0  0  0  0  0
    7.2020   -2.5170   18.3850 C   0  0  0  0  0  0  0  0  0  0  0  0
    5.9150   -4.1180   19.6000 O   0  0  0  0  0  0  0  0  0  0  0  0
    6.6130   -3.1080   19.6520 C   0  0  0  0  0  0  0  0  0  0  0  0
    8.7780   -2.2800   22.9900 N   0  0  0  0  0  0  0  0  0  0  0  0
    7.6550   -1.2950   21.0370 C   0  0  0  0  0  0  0  0  0  0  0  0
    8.9720   -1.5960   21.7080 C   0  0  0  0  0  0  0  0  0  0  0  0
   10.0830   -2.6360   23.5700 C   0  0  0  0  0  0  0  0  0  0  0  0
   11.0500   -1.5000   23.6090 C   0  0  0  0  0  0  0  0  0  0  0  0
   12.1410   -1.2560   22.7660 C   0  0  0  0  0  0  0  0  0  0  0  0
   12.8280   -0.0760   23.1450 C   0  0  0  0  0  0  0  0  0  0  0  0
   12.1510    0.6440   24.0660 C   0  0  0  0  0  0  0  0  0  0  0  0
    7.9920   -3.5010   22.7850 C   0  0  0  0  0  0  0  0  0  0  0  0
    6.6750   -3.2020   22.1090 C   0  0  0  0  0  0  0  0  0  0  0  0
   10.9200   -0.2690   24.7990 S   0  0  0  0  0  0  0  0  0  0  0  0
    8.8530   -3.2120   18.1510 S   0  0  0  0  0  0  0  0  0  0  0  0
  4  3  2  0
  4  2  1  0
  4  1  1  0
  6  1  1  0
  7  6  1  0
  7  5  1  0
  8  5  1  0
  9  8  1  0
 10  9  2  0
 11 10  1  0
 12 11  2  0
 13  5  1  0
 14  1  1  0
 14 13  1  0
 15 12  1  0
 15  9  1  0
  2 16  1  0
M  END
