
     RDKit          3D

 21 23  0  0  0  0  0  0  0  0999 V2000
    7.1820   -2.8200   21.2670 N   0  0  0  0  0  0  0  0  0  0  0  0
   13.5940   -1.2210   21.5680 C   0  0  0  0  0  0  0  0  0  0  0  0
    5.6300   -3.7360   19.9370 O   0  0  0  0  0  0  0  0  0  0  0  0
   12.4190   -0.7690   22.3980 C   0  0  2  0  0  0  0  0  0  0  0  0
   12.5510    0.2670   23.3160 C   0  0  0  0  0  0  0  0  0  0  0  0
   11.5070    0.6090   24.1580 C   0  0  0  0  0  0  0  0  0  0  0  0
   10.3080   -0.0730   24.0790 C   0  0  0  0  0  0  0  0  0  0  0  0
   10.1360   -1.0900   23.1500 C   0  0  2  0  0  0  0  0  0  0  0  0
   11.2000   -1.4300   22.3210 C   0  0  0  0  0  0  0  0  0  0  0  0
    8.7740   -1.7520   22.9910 C   0  0  1  0  0  0  0  0  0  0  0  0
    8.3220   -1.9240   21.5340 C   0  0  0  0  0  0  0  0  0  0  0  0
    6.4960   -3.2890   22.4930 C   0  0  0  0  0  0  0  0  0  0  0  0
    7.4640   -3.8010   23.5270 C   0  0  0  0  0  0  0  0  0  0  0  0
    7.2440   -4.9590   24.2730 C   0  0  0  0  0  0  0  0  0  0  0  0
    8.1550   -5.3560   25.2380 C   0  0  0  0  0  0  0  0  0  0  0  0
    9.2940   -4.6170   25.4540 C   0  0  0  0  0  0  0  0  0  0  0  0
    9.5250   -3.4680   24.7150 C   0  0  0  0  0  0  0  0  0  0  0  0
    8.6080   -3.0430   23.7560 C   0  0  2  0  0  0  0  0  0  0  0  0
    6.6910   -3.1650   20.0560 C   0  0  0  0  0  0  0  0  0  0  0  0
    7.4860   -2.7500   18.8430 C   0  0  0  0  0  0  0  0  0  0  0  0
    8.9550   -3.3820   18.5070 S   0  0  0  0  0  0  0  0  0  0  0  0
  4  2  1  1
  5  4  1  0
  6  5  1  0
  7  6  1  0
  8  7  1  6
  9  8  1  0
  9  4  1  0
 10  8  1  0
 11  1  1  0
 10 11  1  6
 12  1  1  0
 13 12  1  0
 14 13  1  0
 15 14  1  0
 16 15  1  0
 17 16  1  0
 18 17  1  1
 18 13  1  0
 18 10  1  0
 19  3  1  0
 19  1  1  0
 20 19  1  0
 20 21  1  0
M  END
