
     RDKit          3D

 22 24  0  0  0  0  0  0  0  0999 V2000
    6.4250    0.6820   17.4590 N   0  0  0  0  0  0  0  0  0  0  0  0
   13.0890    4.0000   21.8400 N   0  0  0  0  0  0  0  0  0  0  0  0
    7.3750   -0.6220   20.8750 C   0  0  0  0  0  0  0  0  0  0  0  0
   12.4420    1.1980   23.1370 C   0  0  0  0  0  0  0  0  0  0  0  0
   12.7090    2.4400   23.6740 O   0  0  0  0  0  0  0  0  0  0  0  0
   11.8970   -1.3150   22.1100 C   0  0  0  0  0  0  0  0  0  0  0  0
    6.6200    0.1070   19.7870 C   0  0  0  0  0  0  0  0  0  0  0  0
    7.0370    0.0460   18.4680 C   0  0  0  0  0  0  0  0  0  0  0  0
    5.3440    1.4190   17.7620 C   0  0  0  0  0  0  0  0  0  0  0  0
    4.8480    1.5480   19.0470 C   0  0  0  0  0  0  0  0  0  0  0  0
   13.4820    0.3080   22.9180 C   0  0  0  0  0  0  0  0  0  0  0  0
   12.5010    4.8340   23.6480 C   0  0  0  0  0  0  0  0  0  0  0  0
   13.2020   -0.9500   22.4030 C   0  0  0  0  0  0  0  0  0  0  0  0
   12.1690    3.5340   22.9090 C   0  0  1  0  0  0  0  0  0  0  0  0
   13.1480    5.2520   22.3370 C   0  0  0  0  0  0  0  0  0  0  0  0
    8.6610    0.0770   21.2710 C   0  0  0  0  0  0  0  0  0  0  0  0
    9.5470   -0.7210   21.9070 N   0  0  0  0  0  0  0  0  0  0  0  0
    8.8610    1.2630   21.0150 O   0  0  0  0  0  0  0  0  0  0  0  0
   13.5440    6.3120   21.8480 O   0  0  0  0  0  0  0  0  0  0  0  0
   10.8630   -0.4090   22.3130 C   0  0  0  0  0  0  0  0  0  0  0  0
    5.4990    0.8780   20.0680 C   0  0  0  0  0  0  0  0  0  0  0  0
   11.1330    0.8480   22.8430 C   0  0  0  0  0  0  0  0  0  0  0  0
  5  4  1  0
  7  3  1  0
  8  7  1  0
  8  1  2  0
  9  1  1  0
 10  9  2  0
 11  4  2  0
 13 11  1  0
 13  6  2  0
 14 12  1  0
 14  5  1  1
 14  2  1  0
 15 12  1  0
 15  2  1  0
 16  3  1  0
 17 16  1  0
 18 16  2  0
 19 15  2  0
 20 17  1  0
 20  6  1  0
 21 10  1  0
 21  7  2  0
 22 20  2  0
 22  4  1  0
M  END
