
     RDKit          3D

 21 22  0  0  0  0  0  0  0  0999 V2000
   14.0040   -1.9130   21.3910 Cl  0  0  0  0  0  0  0  0  0  0  0  0
   12.9070   -0.7560   22.0770 C   0  0  0  0  0  0  0  0  0  0  0  0
   13.3970    0.4460   22.5440 C   0  0  0  0  0  0  0  0  0  0  0  0
   12.5100    1.3530   23.1010 C   0  0  0  0  0  0  0  0  0  0  0  0
   11.1600    1.0450   23.1890 C   0  0  0  0  0  0  0  0  0  0  0  0
   11.5680   -1.0770   22.1580 C   0  0  0  0  0  0  0  0  0  0  0  0
   10.6760   -0.1720   22.7200 C   0  0  0  0  0  0  0  0  0  0  0  0
    9.1940   -0.5150   22.7640 C   0  0  1  0  0  0  0  0  0  0  0  0
    8.5560   -0.4290   24.1930 C   0  0  1  0  0  0  0  0  0  0  0  0
    8.8990    0.8610   24.9150 C   0  0  0  0  0  0  0  0  0  0  0  0
    7.0460   -0.6390   24.1730 C   0  0  0  0  0  0  0  0  0  0  0  0
    8.4570    0.2980   21.6990 C   0  0  0  0  0  0  0  0  0  0  0  0
    8.7820    1.4480   21.4260 O   0  0  0  0  0  0  0  0  0  0  0  0
    7.5030   -0.3760   21.0220 N   0  0  0  0  0  0  0  0  0  0  0  0
    6.7830    0.1590   19.9260 C   0  0  0  0  0  0  0  0  0  0  0  0
    5.6050    0.9040   20.1520 C   0  0  0  0  0  0  0  0  0  0  0  0
    5.0250    1.0880   21.5310 C   0  0  0  0  0  0  0  0  0  0  0  0
    4.9920    1.4790   19.0430 C   0  0  0  0  0  0  0  0  0  0  0  0
    5.5430    1.3020   17.7900 C   0  0  0  0  0  0  0  0  0  0  0  0
    6.6510    0.5920   17.5620 N   0  0  0  0  0  0  0  0  0  0  0  0
    7.2520    0.0300   18.6180 C   0  0  0  0  0  0  0  0  0  0  0  0
  2  1  1  0
  3  2  2  0
  4  3  1  0
  5  4  2  0
  6  2  1  0
  7  6  2  0
  7  5  1  0
  8  7  1  0
  9  8  1  0
  9 10  1  6
 11  9  1  0
  8 12  1  6
 13 12  2  0
 14 12  1  0
 15 14  1  0
 16 15  2  0
 17 16  1  0
 18 16  1  0
 19 18  2  0
 20 19  1  0
 21 20  2  0
 21 15  1  0
M  END
