
     RDKit          3D

 12 12  0  0  0  0  0  0  0  0999 V2000
    7.5280   -3.2020   21.3800 N   0  0  0  0  0  0  0  0  0  0  0  0
    8.5740   -2.6420   19.3410 C   0  0  0  0  0  0  0  0  0  0  0  0
    6.3860   -3.6150   19.4520 O   0  0  0  0  0  0  0  0  0  0  0  0
    7.3730   -3.2140   20.0460 C   0  0  0  0  0  0  0  0  0  0  0  0
    6.5320   -3.3080   22.3740 C   0  0  0  0  0  0  0  0  0  0  0  0
    6.1040   -2.2080   23.1140 C   0  0  0  0  0  0  0  0  0  0  0  0
    5.1350   -2.3970   24.0750 C   0  0  0  0  0  0  0  0  0  0  0  0
    4.6380   -3.6670   24.2630 C   0  0  0  0  0  0  0  0  0  0  0  0
    5.9710   -4.5480   22.6450 C   0  0  0  0  0  0  0  0  0  0  0  0
    5.0450   -4.7290   23.5620 N   0  0  0  0  0  0  0  0  0  0  0  0
    6.4730   -5.9530   21.7700 Cl  0  0  0  0  0  0  0  0  0  0  0  0
    9.2300   -3.4580   17.8630 S   0  0  0  0  0  0  0  0  0  0  0  0
  4  3  1  0
  4  2  1  0
  4  1  1  0
  5  1  1  0
  6  5  1  0
  7  6  1  0
  8  7  1  0
  9  5  1  0
 10  8  1  0
 10  9  1  0
 11  9  1  0
  2 12  1  0
M  END
$$$$
