
     RDKit          3D

 20 21  0  0  0  0  0  0  0  0999 V2000
    7.7380   -0.3690   20.6190 N   0  0  0  0  0  0  0  0  0  0  0  0
    8.6250   -2.6720   24.0530 C   0  0  0  0  0  0  0  0  0  0  0  0
    9.0980    1.3390   21.2090 O   0  0  0  0  0  0  0  0  0  0  0  0
   13.8570   -1.6060   21.2160 Cl  0  0  0  0  0  0  0  0  0  0  0  0
    8.5560   -2.0220   22.6890 C   0  0  0  0  0  0  0  0  0  0  0  0
    6.0680    0.5650   17.5640 N   0  0  0  0  0  0  0  0  0  0  0  0
    8.9920   -0.5490   22.7110 C   0  0  2  0  0  0  0  0  0  0  0  0
    5.0910    1.4130   18.0030 N   0  0  0  0  0  0  0  0  0  0  0  0
    8.6140    0.2380   21.4510 C   0  0  0  0  0  0  0  0  0  0  0  0
    6.6510    0.0260   19.8170 C   0  0  2  0  0  0  0  0  0  0  0  0
    6.7860   -0.1060   18.4380 C   0  0  0  0  0  0  0  0  0  0  0  0
    4.8840    1.5600   19.3180 C   0  0  0  0  0  0  0  0  0  0  0  0
    5.6350    0.8910   20.2790 C   0  0  1  0  0  0  0  0  0  0  0  0
    5.2840    1.0080   21.7410 C   0  0  0  0  0  0  0  0  0  0  0  0
   10.4820   -0.3860   22.9530 C   0  0  2  0  0  0  0  0  0  0  0  0
   10.9610    0.4980   23.9100 C   0  0  0  0  0  0  0  0  0  0  0  0
   12.3140    0.7930   23.9870 C   0  0  0  0  0  0  0  0  0  0  0  0
   13.2100    0.1890   23.1180 C   0  0  0  0  0  0  0  0  0  0  0  0
   12.7330   -0.7310   22.2120 C   0  0  2  0  0  0  0  0  0  0  0  0
   11.3880   -1.0240   22.1130 C   0  0  0  0  0  0  0  0  0  0  0  0
  5  2  1  0
  7  5  1  6
  8  6  1  0
  9  3  1  0
  9  1  1  0
  9  7  1  0
 10  1  1  6
 11 10  1  0
 11  6  1  0
 12  8  1  0
 13 12  1  0
 13 10  1  0
 13 14  1  6
 15  7  1  0
 15 16  1  6
 17 16  1  0
 18 17  1  0
 19  4  1  1
 19 18  1  0
 20 15  1  0
 20 19  1  0
M  END
$$$$
