
     RDKit          3D

 30 33  0  0  0  0  0  0  0  0999 V2000
    9.4310   -0.8460   21.9240 N   0  0  0  0  0  0  0  0  0  0  0  0
   12.4870    7.2820   25.5330 C   0  0  0  0  0  0  0  0  0  0  0  0
   13.1150    7.1360   24.2490 O   0  0  0  0  0  0  0  0  0  0  0  0
   14.2050   -1.7250   23.5250 Cl  0  0  0  0  0  0  0  0  0  0  0  0
   13.0630    5.9270   23.6470 C   0  0  0  0  0  0  0  0  0  0  0  0
    6.2630    0.3900   17.3840 N   0  0  0  0  0  0  0  0  0  0  0  0
   11.7670    2.7080   24.1590 O   0  0  0  0  0  0  0  0  0  0  0  0
   13.7010    5.8430   22.4050 C   0  0  0  0  0  0  0  0  0  0  0  0
   12.4310    4.9120   24.2360 N   0  0  0  0  0  0  0  0  0  0  0  0
    8.5920    1.0590   21.0030 O   0  0  0  0  0  0  0  0  0  0  0  0
   13.6530    4.6270   21.7500 C   0  0  0  0  0  0  0  0  0  0  0  0
   12.9930    3.5530   22.3230 C   0  0  0  0  0  0  0  0  0  0  0  0
   12.4060    3.7620   23.5720 C   0  0  0  0  0  0  0  0  0  0  0  0
   11.7980    1.4290   23.6090 C   0  0  0  0  0  0  0  0  0  0  0  0
   12.9230    0.6310   23.7290 C   0  0  0  0  0  0  0  0  0  0  0  0
   12.8560   -0.6630   23.2570 C   0  0  0  0  0  0  0  0  0  0  0  0
   11.7230   -1.1670   22.6490 C   0  0  0  0  0  0  0  0  0  0  0  0
   10.6020   -0.3490   22.5380 C   0  0  0  0  0  0  0  0  0  0  0  0
    8.5080   -0.1460   21.2340 C   0  0  0  0  0  0  0  0  0  0  0  0
    7.3280   -0.9720   20.7610 C   0  0  0  0  0  0  0  0  0  0  0  0
    6.5520   -0.2120   19.7050 C   0  0  0  0  0  0  0  0  0  0  0  0
    6.8840   -0.2750   18.3670 C   0  0  0  0  0  0  0  0  0  0  0  0
    5.2390    1.1640   17.7180 C   0  0  0  0  0  0  0  0  0  0  0  0
    4.7800    1.3330   19.0450 C   0  0  0  0  0  0  0  0  0  0  0  0
    3.7000    2.1780   19.3950 C   0  0  0  0  0  0  0  0  0  0  0  0
    3.3210    2.3130   20.6980 C   0  0  0  0  0  0  0  0  0  0  0  0
    3.9870    1.6320   21.7020 C   0  0  0  0  0  0  0  0  0  0  0  0
    5.0300    0.8040   21.4070 C   0  0  0  0  0  0  0  0  0  0  0  0
    5.4620    0.6230   20.0660 C   0  0  0  0  0  0  0  0  0  0  0  0
   10.6390    0.9540   23.0230 C   0  0  0  0  0  0  0  0  0  0  0  0
  3  2  1  0
  5  3  1  0
  8  5  2  0
  9  5  1  0
 11  8  1  0
 12 11  2  0
 13 12  1  0
 13  9  2  0
 13  7  1  0
 14  7  1  0
 15 14  2  0
 16 15  1  0
 16  4  1  0
 17 16  2  0
 18  1  1  0
 18 17  1  0
 19 10  2  0
 19  1  1  0
 20 19  1  0
 21 20  1  0
 22 21  1  0
 22  6  2  0
 23  6  1  0
 24 23  2  0
 25 24  1  0
 26 25  2  0
 27 26  1  0
 28 27  2  0
 29 28  1  0
 29 24  1  0
 29 21  2  0
 30 18  2  0
 30 14  1  0
M  END
