
     RDKit          3D

 24 27  0  0  0  0  0  0  0  0999 V2000
    8.8550    1.0730   20.9950 O   0  0  0  0  0  0  0  0  0  0  0  0
    8.2830    0.1760   21.5940 C   0  0  0  0  0  0  0  0  0  0  0  0
    8.6730   -0.1710   23.0230 C   0  0  2  0  0  0  0  0  0  0  0  0
   10.1720   -0.3870   23.1240 C   0  0  1  0  0  0  0  0  0  0  0  0
   10.8970    0.1720   24.1680 C   0  0  0  0  0  0  0  0  0  0  0  0
   12.2440   -0.0930   24.3210 C   0  0  0  0  0  0  0  0  0  0  0  0
   10.8370   -1.1930   22.2100 C   0  0  0  0  0  0  0  0  0  0  0  0
   12.1830   -1.4760   22.3550 C   0  0  0  0  0  0  0  0  0  0  0  0
   12.8660   -0.9410   23.4260 C   0  0  2  0  0  0  0  0  0  0  0  0
   14.5070   -1.4420   23.7270 Cl  0  0  0  0  0  0  0  0  0  0  0  0
    7.2450   -0.5200   21.0330 N   0  0  0  0  0  0  0  0  0  0  0  0
    6.5990   -1.7220   21.6030 C   0  0  0  0  0  0  0  0  0  0  0  0
    7.4350   -2.3530   22.6940 C   0  0  0  0  0  0  0  0  0  0  0  0
    7.8660   -1.2990   23.7050 C   0  0  0  0  0  0  0  0  0  0  0  0
    6.5060    0.0640   19.9560 C   0  0  0  0  0  0  0  0  0  0  0  0
    5.3760    0.8990   20.2070 C   0  0  0  0  0  0  0  0  0  0  0  0
    4.9130    1.2500   21.5040 C   0  0  0  0  0  0  0  0  0  0  0  0
    3.8240    2.0570   21.6670 C   0  0  0  0  0  0  0  0  0  0  0  0
    3.1420    2.5560   20.5700 C   0  0  0  0  0  0  0  0  0  0  0  0
    3.5530    2.2620   19.3040 C   0  0  0  0  0  0  0  0  0  0  0  0
    4.6800    1.4310   19.0860 C   0  0  0  0  0  0  0  0  0  0  0  0
    5.1700    1.1170   17.7980 C   0  0  0  0  0  0  0  0  0  0  0  0
    6.2300    0.3570   17.5700 N   0  0  0  0  0  0  0  0  0  0  0  0
    6.8640   -0.1540   18.6320 C   0  0  0  0  0  0  0  0  0  0  0  0
  2  1  1  0
  3  2  1  0
  4  3  1  0
  4  5  1  1
  6  5  1  0
  7  4  1  0
  8  7  1  0
  9  8  1  0
  9  6  1  0
  9 10  1  1
 11  2  1  0
 12 11  1  0
 13 12  1  0
 14 13  1  0
  3 14  1  6
 15 11  1  0
 16 15  1  0
 17 16  1  0
 18 17  1  0
 19 18  1  0
 20 19  1  0
 21 20  1  0
 21 16  1  0
 22 21  1  0
 23 22  1  0
 24 23  1  0
 24 15  1  0
M  END
$$$$
