
     RDKit          3D

  6  5  0  0  0  0  0  0  0  0999 V2000
   16.3760  -17.5890   28.1680 C   0  0  0  0  0  0  0  0  0  0  0  0
   15.7700  -16.2330   28.4430 C   0  0  0  0  0  0  0  0  0  0  0  0
   14.2840  -16.2420   28.1410 C   0  0  0  0  0  0  0  0  0  0  0  0
   13.6330  -14.9750   28.6860 C   0  0  0  0  0  0  0  0  0  0  0  0
   12.2880  -15.1670   29.2090 N   0  0  0  0  0  0  0  0  0  0  0  0
   12.2060  -14.8800   30.6120 C   0  0  0  0  0  0  0  0  0  0  0  0
  2  1  1  0
  3  2  1  0
  4  3  1  0
  5  4  1  0
  6  5  1  0
M  END
