
     RDKit          3D

 49 53  0  0  0  0  0  0  0  0999 V2000
   10.1690    0.8040   22.8130 N   0  0  0  0  0  0  0  0  0  0  0  0
   10.3990   -0.4950   22.1780 C   0  0  2  0  0  0  0  0  0  0  0  0
    7.2890   -2.2920   20.8600 C   0  0  2  0  0  0  0  0  0  0  0  0
    7.5530   -3.7520   20.5180 C   0  0  2  0  0  0  0  0  0  0  0  0
    6.4280   -1.6890   19.7370 C   0  0  0  0  0  0  0  0  0  0  0  0
    6.0800   -0.2080   19.7630 C   0  0  0  0  0  0  0  0  0  0  0  0
    5.8100    0.3400   18.3400 C   0  0  0  0  0  0  0  0  0  0  0  0
    6.2930   -4.5690   20.6500 C   0  0  0  0  0  0  0  0  0  0  0  0
    5.0170   -6.1050   22.0250 C   0  0  1  0  0  0  0  0  0  0  0  0
    4.6830   -6.4130   23.4440 C   0  0  0  0  0  0  0  0  0  0  0  0
    3.8280   -5.4710   22.6650 C   0  0  0  0  0  0  0  0  0  0  0  0
    9.4720    1.7980   22.2500 C   0  0  0  0  0  0  0  0  0  0  0  0
    9.0920    2.9740   23.1650 C   0  0  2  0  0  0  0  0  0  0  0  0
   10.8610    4.5680   23.5840 C   0  0  0  0  0  0  0  0  0  0  0  0
   11.7570    5.7060   23.0820 C   0  0  1  0  0  0  0  0  0  0  0  0
    7.5850    3.2420   23.3110 C   0  0  2  0  0  0  0  0  0  0  0  0
    9.1390   -1.3650   22.1970 C   0  0  0  0  0  0  0  0  0  0  0  0
    8.6620   -1.7850   23.2500 O   0  0  0  0  0  0  0  0  0  0  0  0
    6.1730   -5.2900   21.7730 N   0  0  0  0  0  0  0  0  0  0  0  0
    9.8520    4.1620   22.8100 N   0  0  0  0  0  0  0  0  0  0  0  0
   11.9730    6.5500   24.2380 N   0  0  0  0  0  0  0  0  0  0  0  0
    8.5760   -1.5960   21.0110 N   0  0  0  0  0  0  0  0  0  0  0  0
   12.8130    9.6400   25.8020 N   0  0  0  0  0  0  0  0  0  0  0  0
   13.5680    7.8310   27.7860 N   0  0  0  0  0  0  0  0  0  0  0  0
   11.5790   -1.0690   22.9790 C   0  0  1  0  0  0  0  0  0  0  0  0
    6.9650    3.8170   22.0340 C   0  0  0  0  0  0  0  0  0  0  0  0
   12.3980    7.8170   24.2420 C   0  0  0  0  0  0  0  0  0  0  0  0
    7.3450    4.2300   24.4510 C   0  0  0  0  0  0  0  0  0  0  0  0
    6.8650    1.9380   23.6690 C   0  0  0  0  0  0  0  0  0  0  0  0
   13.0010   -0.7710   22.4560 C   0  0  0  0  0  0  0  0  0  0  0  0
   13.5260    0.3290   23.3710 C   0  0  0  0  0  0  0  0  0  0  0  0
   13.1640    5.3660   22.5480 C   0  0  2  0  0  0  0  0  0  0  0  0
   13.5720    6.3310   21.4240 C   0  0  0  0  0  0  0  0  0  0  0  0
   14.6420    5.7380   20.5040 C   0  0  0  0  0  0  0  0  0  0  0  0
   15.5600    4.7930   21.2510 C   0  0  0  0  0  0  0  0  0  0  0  0
   14.7880    3.5840   21.7550 C   0  0  0  0  0  0  0  0  0  0  0  0
   13.3410    3.9070   22.1350 C   0  0  0  0  0  0  0  0  0  0  0  0
   12.8320    8.3190   25.5850 C   0  0  0  0  0  0  0  0  0  0  0  0
   13.1910   10.0440   27.0140 C   0  0  0  0  0  0  0  0  0  0  0  0
   13.5720    9.1530   27.9920 C   0  0  0  0  0  0  0  0  0  0  0  0
   13.1910    7.4210   26.5720 C   0  0  0  0  0  0  0  0  0  0  0  0
    8.5420   -4.3260   21.3190 O   0  0  0  0  0  0  0  0  0  0  0  0
    5.4560   -4.5760   19.7490 O   0  0  0  0  0  0  0  0  0  0  0  0
    9.1330    1.7230   21.0800 O   0  0  0  0  0  0  0  0  0  0  0  0
   11.0880    4.0660   24.6810 O   0  0  0  0  0  0  0  0  0  0  0  0
   12.4240    8.5420   23.2470 O   0  0  0  0  0  0  0  0  0  0  0  0
   11.5140   -0.3740   24.3650 C   0  0  2  0  0  0  0  0  0  0  0  0
   10.7280    0.9090   24.1600 C   0  0  0  0  0  0  0  0  0  0  0  0
   12.9820   -0.0860   24.7010 C   0  0  0  0  0  0  0  0  0  0  0  0
  2  1  1  0
  4  3  1  0
  3  5  1  6
  6  5  1  0
  7  6  1  0
  8  4  1  0
 10  9  1  0
 11 10  1  0
 11  9  1  0
 12  1  1  0
 13 12  1  0
 15 14  1  0
 16 13  1  0
  2 17  1  1
 18 17  2  0
  9 19  1  1
 19  8  1  0
 20 14  1  0
 13 20  1  6
 15 21  1  1
 22  3  1  0
 22 17  1  0
 25  2  1  0
 16 26  1  6
 27 21  1  0
 28 16  1  0
 29 16  1  0
 25 30  1  6
 31 30  1  0
 32 15  1  0
 32 33  1  6
 34 33  1  0
 35 34  1  0
 36 35  1  0
 37 36  1  0
 37 32  1  0
 38 27  1  0
 38 23  2  0
 39 23  1  0
 40 39  2  0
 40 24  1  0
 41 38  1  0
 41 24  2  0
  4 42  1  1
 43  8  2  0
 44 12  2  0
 45 14  2  0
 46 27  2  0
 47 25  1  0
 48  1  1  0
 47 48  1  6
 49 47  1  0
 49 31  1  0
M  END
$$$$
