
     RDKit          3D

 21 22  0  0  0  0  0  0  0  0999 V2000
    5.7780   -5.3980   24.2740 N   0  0  0  0  0  0  0  0  0  0  0  0
    0.6710   -1.4310   26.0950 C   0  0  0  0  0  0  0  0  0  0  0  0
    4.5620   -6.8710   25.8280 O   0  0  0  0  0  0  0  0  0  0  0  0
    1.7490   -2.4610   26.0050 C   0  0  0  0  0  0  0  0  0  0  0  0
    6.6980   -4.8090   21.6850 N   0  0  0  0  0  0  0  0  0  0  0  0
    6.0830   -5.1290   26.6990 O   0  0  0  0  0  0  0  0  0  0  0  0
    3.0570   -2.1470   26.3030 C   0  0  0  0  0  0  0  0  0  0  0  0
    5.8980   -4.1720   19.6610 O   0  0  0  0  0  0  0  0  0  0  0  0
    4.0540   -3.0920   26.2240 C   0  0  0  0  0  0  0  0  0  0  0  0
    3.7550   -4.3930   25.8370 C   0  0  0  0  0  0  0  0  0  0  0  0
    2.4300   -4.7520   25.5230 C   0  0  0  0  0  0  0  0  0  0  0  0
    1.9660   -6.1140   25.0880 C   0  0  0  0  0  0  0  0  0  0  0  0
    1.4620   -3.7570   25.6200 C   0  0  0  0  0  0  0  0  0  0  0  0
    6.5950   -4.1990   24.0360 C   0  0  0  0  0  0  0  0  0  0  0  0
    7.4960   -4.4640   22.8620 C   0  0  0  0  0  0  0  0  0  0  0  0
    5.8280   -5.9630   21.9170 C   0  0  0  0  0  0  0  0  0  0  0  0
    4.9360   -5.7210   23.1090 C   0  0  0  0  0  0  0  0  0  0  0  0
    6.7830   -4.1490   20.5080 C   0  0  0  0  0  0  0  0  0  0  0  0
    8.0760   -3.4240   20.2340 C   0  0  0  0  0  0  0  0  0  0  0  0
    5.0920   -5.5460   25.7550 S   0  0  0  0  0  0  0  0  0  0  0  0
    8.4560   -3.3640   18.4650 S   0  0  0  0  0  0  0  0  0  0  0  0
  4  2  1  0
  7  4  2  0
  9  7  1  0
 10  9  2  0
 11 10  1  0
 12 11  1  0
 13 11  2  0
 13  4  1  0
 14  1  1  0
 15  5  1  0
 15 14  1  0
 16  5  1  0
 17 16  1  0
 17  1  1  0
 18  8  2  0
 18  5  1  0
 19 18  1  0
 20  3  2  0
 20 10  1  0
 20  6  2  0
 20  1  1  0
 19 21  1  0
M  END
