
     RDKit          3D

 13 14  0  0  0  0  0  0  0  0999 V2000
    6.7320   22.5750   -3.8010 F   0  0  0  0  0  0  0  0  0  0  0  0
    6.6020   22.8080   -2.4680 C   0  0  0  0  0  0  0  0  0  0  0  0
    5.6110   22.1390   -1.7810 C   0  0  0  0  0  0  0  0  0  0  0  0
    5.4490   22.3950   -0.4300 C   0  0  0  0  0  0  0  0  0  0  0  0
    7.4580   23.7200   -1.8910 C   0  0  0  0  0  0  0  0  0  0  0  0
    7.3050   23.9820   -0.5330 C   0  0  0  0  0  0  0  0  0  0  0  0
    6.2960   23.3110    0.1830 C   0  0  0  0  0  0  0  0  0  0  0  0
    6.3610   23.7360    1.4860 N   0  0  0  0  0  0  0  0  0  0  0  0
    7.3730   24.6490    1.6060 C   0  0  0  0  0  0  0  0  0  0  0  0
    7.9850   24.8370    0.4010 C   0  0  0  0  0  0  0  0  0  0  0  0
    9.1400   25.7410    0.1020 C   0  0  0  0  0  0  0  0  0  0  0  0
    8.6870   27.1290    0.2210 N   0  0  0  0  0  0  0  0  0  0  0  0
    8.0210   27.5830   -1.0000 C   0  0  0  0  0  0  0  0  0  0  0  0
  2  1  1  0
  3  2  1  0
  4  3  1  0
  5  2  1  0
  6  5  1  0
  7  4  1  0
  7  6  1  0
  8  7  1  0
  9  8  1  0
 10  9  1  0
 10  6  1  0
 11 10  1  0
 12 11  1  0
 13 12  1  0
M  END
$$$$
