
     RDKit          3D

 26 29  0  0  0  0  0  0  0  0999 V2000
    6.7720    1.0490   16.7240 O   0  0  0  0  0  0  0  0  0  0  0  0
    6.1930    0.8040   17.7870 C   0  0  0  0  0  0  0  0  0  0  0  0
    6.4360   -0.3630   18.5760 C   0  0  0  0  0  0  0  0  0  0  0  0
    5.2630    1.6820   18.2880 N   0  0  0  0  0  0  0  0  0  0  0  0
    4.5820    1.5060   19.4900 C   0  0  0  0  0  0  0  0  0  0  0  0
    4.8500    0.3660   20.2790 C   0  0  0  0  0  0  0  0  0  0  0  0
    4.2070    0.2190   21.5070 C   0  0  0  0  0  0  0  0  0  0  0  0
    3.2710    1.1530   21.9120 C   0  0  0  0  0  0  0  0  0  0  0  0
    2.9800    2.2430   21.1140 C   0  0  0  0  0  0  0  0  0  0  0  0
    3.6400    2.4390   19.9140 C   0  0  0  0  0  0  0  0  0  0  0  0
    5.8120   -0.5990   19.7660 C   0  0  0  0  0  0  0  0  0  0  0  0
    6.1330   -1.8350   20.5350 C   0  0  0  0  0  0  0  0  0  0  0  0
    5.2820   -2.7110   20.6880 O   0  0  0  0  0  0  0  0  0  0  0  0
    7.3450   -1.9250   21.0960 N   0  0  0  0  0  0  0  0  0  0  0  0
    8.6590   -1.2870   20.9530 C   0  0  0  0  0  0  0  0  0  0  0  0
    7.8540   -3.0860   21.8280 C   0  0  0  0  0  0  0  0  0  0  0  0
    9.1770   -2.3080   21.9840 C   0  0  2  0  0  0  0  0  0  0  0  0
    9.4560   -1.7760   23.3000 N   0  0  0  0  0  0  0  0  0  0  0  0
   10.4770   -0.9040   23.5650 C   0  0  0  0  0  0  0  0  0  0  0  0
   10.4600   -0.2350   24.8010 C   0  0  0  0  0  0  0  0  0  0  0  0
    9.4460   -0.6220   25.6370 O   0  0  0  0  0  0  0  0  0  0  0  0
    9.2980    0.0580   26.8840 C   0  0  0  0  0  0  0  0  0  0  0  0
   11.5190   -0.6610   22.6670 C   0  0  0  0  0  0  0  0  0  0  0  0
   12.5170    0.2430   23.0060 C   0  0  0  0  0  0  0  0  0  0  0  0
   12.4750    0.9160   24.2140 C   0  0  0  0  0  0  0  0  0  0  0  0
   11.4470    0.6860   25.1180 C   0  0  0  0  0  0  0  0  0  0  0  0
  2  1  2  0
  3  2  1  0
  4  2  1  0
  5  4  1  0
  6  5  2  0
  7  6  1  0
  8  7  2  0
  9  8  1  0
 10  9  2  0
 10  5  1  0
 11  6  1  0
 11  3  2  0
 12 11  1  0
 13 12  2  0
 14 12  1  0
 15 14  1  0
 16 14  1  0
 17 15  1  0
 17 16  1  0
 17 18  1  1
 19 18  1  0
 20 19  2  0
 21 20  1  0
 22 21  1  0
 23 19  1  0
 24 23  2  0
 25 24  1  0
 26 20  1  0
 26 25  2  0
M  END
