
     RDKit          3D

 23 24  0  0  0  0  0  0  0  0999 V2000
    7.0620   -0.6400   20.7220 N   0  0  0  0  0  0  0  0  0  0  0  0
    4.6540    0.0470   25.0320 C   0  0  0  0  0  0  0  0  0  0  0  0
    8.9590    0.6560   24.0960 O   0  0  0  0  0  0  0  0  0  0  0  0
   14.0090   -1.5160   22.0950 Cl  0  0  0  0  0  0  0  0  0  0  0  0
    6.1290   -0.2770   24.9090 C   0  0  0  0  0  0  0  0  0  0  0  0
    6.3560    0.6790   17.3530 N   0  0  0  0  0  0  0  0  0  0  0  0
    8.9120    0.6730   20.8870 O   0  0  0  0  0  0  0  0  0  0  0  0
    7.0150    0.8170   25.5040 C   0  0  0  0  0  0  0  0  0  0  0  0
    8.5030    0.5420   25.4600 C   0  0  0  0  0  0  0  0  0  0  0  0
   10.1740    0.1170   23.7490 C   0  0  0  0  0  0  0  0  0  0  0  0
   11.3850    0.6030   24.2210 C   0  0  0  0  0  0  0  0  0  0  0  0
   12.5690    0.1410   23.6680 C   0  0  0  0  0  0  0  0  0  0  0  0
   12.5220   -0.8390   22.6980 C   0  0  0  0  0  0  0  0  0  0  0  0
   11.3280   -1.3510   22.2460 C   0  0  0  0  0  0  0  0  0  0  0  0
   10.1310   -0.8680   22.7600 C   0  0  0  0  0  0  0  0  0  0  0  0
    8.8140   -1.3470   22.1980 C   0  0  0  0  0  0  0  0  0  0  0  0
    8.2800   -0.3360   21.2040 C   0  0  0  0  0  0  0  0  0  0  0  0
    6.4190    0.0580   19.6750 C   0  0  0  0  0  0  0  0  0  0  0  0
    6.9050    0.0040   18.3690 C   0  0  0  0  0  0  0  0  0  0  0  0
    5.2840    1.4340   17.6280 C   0  0  0  0  0  0  0  0  0  0  0  0
    4.7330    1.5480   18.8880 C   0  0  0  0  0  0  0  0  0  0  0  0
    5.3040    0.8610   19.9530 C   0  0  0  0  0  0  0  0  0  0  0  0
    4.7890    1.0520   21.3580 C   0  0  0  0  0  0  0  0  0  0  0  0
  5  2  1  0
  8  5  1  0
  9  8  1  0
  9  3  1  0
 10  3  1  0
 11 10  2  0
 12 11  1  0
 13 12  2  0
 13  4  1  0
 14 13  1  0
 15 10  1  0
 15 14  2  0
 16 15  1  0
 17  7  2  0
 17  1  1  0
 17 16  1  0
 18  1  1  0
 19 18  1  0
 19  6  2  0
 20  6  1  0
 21 20  2  0
 22 21  1  0
 22 18  2  0
 23 22  1  0
M  END
