
     RDKit          3D

 20 21  0  0  0  0  0  0  0  0999 V2000
    5.6930   -5.1980   24.4050 N   0  0  0  0  0  0  0  0  0  0  0  0
    2.5030   -4.1060   25.7770 C   0  0  0  0  0  0  0  0  0  0  0  0
    4.4070   -6.2830   26.1930 O   0  0  0  0  0  0  0  0  0  0  0  0
    1.5260   -3.1410   25.7540 C   0  0  0  0  0  0  0  0  0  0  0  0
    6.5510   -5.0910   21.7350 N   0  0  0  0  0  0  0  0  0  0  0  0
    6.1500   -4.6240   26.7610 O   0  0  0  0  0  0  0  0  0  0  0  0
    1.9070   -1.8180   25.8390 C   0  0  0  0  0  0  0  0  0  0  0  0
    5.8100   -4.8550   19.6190 O   0  0  0  0  0  0  0  0  0  0  0  0
    3.2360   -1.4510   25.9480 C   0  0  0  0  0  0  0  0  0  0  0  0
    4.1930   -2.4380   25.9660 C   0  0  0  0  0  0  0  0  0  0  0  0
    3.8470   -3.7790   25.8820 C   0  0  0  0  0  0  0  0  0  0  0  0
    4.7250   -5.3170   23.3060 C   0  0  0  0  0  0  0  0  0  0  0  0
    5.4280   -5.9390   22.1320 C   0  0  0  0  0  0  0  0  0  0  0  0
    7.5170   -4.9470   22.8270 C   0  0  0  0  0  0  0  0  0  0  0  0
    6.8430   -4.3540   24.0380 C   0  0  0  0  0  0  0  0  0  0  0  0
    6.5970   -4.5350   20.5020 C   0  0  0  0  0  0  0  0  0  0  0  0
    7.6120   -3.4500   20.2410 C   0  0  0  0  0  0  0  0  0  0  0  0
    2.1300   -5.4030   25.6950 F   0  0  0  0  0  0  0  0  0  0  0  0
    5.4940   -2.0780   26.0660 F   0  0  0  0  0  0  0  0  0  0  0  0
    5.0770   -5.0500   25.9170 S   0  0  1  0  0  0  0  0  0  0  0  0
  4  2  1  0
  7  4  1  0
  9  7  1  0
 10  9  1  0
 11 10  1  0
 11  2  1  0
 12  1  1  0
 13 12  1  0
 13  5  1  0
 14  5  1  0
 15 14  1  0
 15  1  1  0
 16  8  1  0
 16  5  1  0
 17 16  1  0
 18  2  1  0
 19 10  1  0
 20  3  1  1
 20 11  1  0
 20  6  1  0
 20  1  1  0
M  END
$$$$
