
     RDKit          3D

 26 28  0  0  0  0  0  0  0  0999 V2000
    1.6530    3.0980   21.4070 F   0  0  0  0  0  0  0  0  0  0  0  0
    2.6450    2.2290   21.0520 C   0  0  0  0  0  0  0  0  0  0  0  0
    3.1730    2.3370   19.7920 C   0  0  0  0  0  0  0  0  0  0  0  0
    3.0830    1.3220   21.9800 C   0  0  0  0  0  0  0  0  0  0  0  0
    4.1050    0.4610   21.6220 C   0  0  0  0  0  0  0  0  0  0  0  0
    4.6730    0.5170   20.3480 C   0  0  0  0  0  0  0  0  0  0  0  0
    4.2140    1.4870   19.4350 C   0  0  0  0  0  0  0  0  0  0  0  0
    4.8470    1.6180   18.2030 N   0  0  0  0  0  0  0  0  0  0  0  0
    5.9250    0.8730   17.8020 C   0  0  0  0  0  0  0  0  0  0  0  0
    6.5280    1.1630   16.7640 O   0  0  0  0  0  0  0  0  0  0  0  0
    6.3410   -0.1570   18.7020 C   0  0  0  0  0  0  0  0  0  0  0  0
    5.7540   -0.3600   19.9120 C   0  0  0  0  0  0  0  0  0  0  0  0
    6.1320   -1.5630   20.7150 C   0  0  0  0  0  0  0  0  0  0  0  0
    5.3740   -2.5290   20.8130 O   0  0  0  0  0  0  0  0  0  0  0  0
    7.2970   -1.5080   21.3600 N   0  0  0  0  0  0  0  0  0  0  0  0
    7.6510   -2.4720   22.3940 C   0  0  0  0  0  0  0  0  0  0  0  0
    9.1250   -2.5040   22.6670 C   0  0  0  0  0  0  0  0  0  0  0  0
    9.5510   -1.1540   22.9170 O   0  0  0  0  0  0  0  0  0  0  0  0
   10.8890   -0.8530   22.8480 C   0  0  0  0  0  0  0  0  0  0  0  0
   11.2200    0.4690   23.2010 C   0  0  0  0  0  0  0  0  0  0  0  0
   10.1610    1.2500   23.5790 O   0  0  0  0  0  0  0  0  0  0  0  0
   10.4160    2.6200   23.8840 C   0  0  0  0  0  0  0  0  0  0  0  0
   11.8790   -1.7170   22.4020 C   0  0  0  0  0  0  0  0  0  0  0  0
   13.1840   -1.2620   22.2850 C   0  0  0  0  0  0  0  0  0  0  0  0
   13.5100    0.0340   22.6350 C   0  0  0  0  0  0  0  0  0  0  0  0
   12.5360    0.9050   23.0990 C   0  0  0  0  0  0  0  0  0  0  0  0
  2  1  1  0
  3  2  2  0
  4  2  1  0
  5  4  2  0
  6  5  1  0
  7  6  2  0
  7  3  1  0
  8  7  1  0
  9  8  1  0
 10  9  2  0
 11  9  1  0
 12  6  1  0
 12 11  2  0
 13 12  1  0
 14 13  2  0
 15 13  1  0
 16 15  1  0
 17 16  1  0
 18 17  1  0
 19 18  1  0
 20 19  2  0
 21 20  1  0
 22 21  1  0
 23 19  1  0
 24 23  2  0
 25 24  1  0
 26 25  2  0
 26 20  1  0
M  END
