
     RDKit          3D

 16 17  0  0  0  0  0  0  0  0999 V2000
    8.7010    1.5310   23.5160 N   0  0  0  0  0  0  0  0  0  0  0  0
    8.9160   -0.9240   22.3220 C   0  0  0  0  0  0  0  0  0  0  0  0
   10.8890    0.4850   23.2070 O   0  0  0  0  0  0  0  0  0  0  0  0
    8.5020   -1.3130   21.0580 C   0  0  0  0  0  0  0  0  0  0  0  0
    6.9870   -4.4920   21.6350 N   0  0  0  0  0  0  0  0  0  0  0  0
    9.6170    1.3230   21.2590 O   0  0  0  0  0  0  0  0  0  0  0  0
    7.8710   -2.5440   20.8910 C   0  0  0  0  0  0  0  0  0  0  0  0
    5.9820   -5.2990   19.7380 O   0  0  0  0  0  0  0  0  0  0  0  0
    7.6820   -3.3560   22.0080 C   0  0  0  0  0  0  0  0  0  0  0  0
    6.3000   -2.4790   19.0250 O   0  0  0  0  0  0  0  0  0  0  0  0
    6.6850   -4.4830   20.3150 C   0  0  0  0  0  0  0  0  0  0  0  0
    7.2910   -3.2440   19.6800 C   0  0  0  0  0  0  0  0  0  0  0  0
    8.1180   -2.9700   23.2720 C   0  0  0  0  0  0  0  0  0  0  0  0
    8.7420   -1.7470   23.4260 C   0  0  0  0  0  0  0  0  0  0  0  0
    9.6340    0.6720   22.5360 S   0  0  0  0  0  0  0  0  0  0  0  0
    8.6890   -3.5190   18.6730 S   0  0  0  0  0  0  0  0  0  0  0  0
  4  2  2  0
  7  4  1  0
  9  7  2  0
  9  5  1  0
 11  8  2  0
 11  5  1  0
 12 11  1  0
 12 10  1  6
 12  7  1  0
 13  9  1  0
 14 13  2  0
 14  2  1  0
 15  6  2  0
 15  3  2  0
 15  2  1  0
 15  1  1  0
 12 16  1  0
M  END
