
     RDKit          3D

 16 17  0  0  0  0  0  0  0  0999 V2000
    6.0460   -5.3330   19.7450 O   0  0  0  0  0  0  0  0  0  0  0  0
    6.7500   -4.5200   20.3250 C   0  0  1  0  0  0  0  0  0  0  0  0
    7.3580   -3.2800   19.6920 C   0  0  0  0  0  0  0  0  0  0  0  0
    6.3680   -2.5120   19.0390 O   0  0  0  0  0  0  0  0  0  0  0  0
    7.9400   -2.5840   20.9050 C   0  0  0  0  0  0  0  0  0  0  0  0
    8.5740   -1.3560   21.0740 C   0  0  0  0  0  0  0  0  0  0  0  0
    7.0520   -4.5330   21.6440 N   0  0  0  0  0  0  0  0  0  0  0  0
    7.7500   -3.3990   22.0200 C   0  0  0  0  0  0  0  0  0  0  0  0
    8.1880   -3.0170   23.2840 C   0  0  0  0  0  0  0  0  0  0  0  0
    8.8140   -1.7950   23.4410 C   0  0  0  0  0  0  0  0  0  0  0  0
    8.9890   -0.9700   22.3390 C   0  0  0  0  0  0  0  0  0  0  0  0
    9.7110    0.6240   22.5570 S   0  0  1  0  0  0  0  0  0  0  0  0
   10.9660    0.4330   23.2270 O   0  0  0  0  0  0  0  0  0  0  0  0
    9.6940    1.2780   21.2810 O   0  0  0  0  0  0  0  0  0  0  0  0
    8.7800    1.4830   23.5390 N   0  0  0  0  0  0  0  0  0  0  0  0
    8.7560   -3.5560   18.6840 S   0  0  0  0  0  0  0  0  0  0  0  0
  2  1  1  1
  3  2  1  0
  3  4  1  6
  5  3  1  0
  6  5  1  0
  7  2  1  0
  8  7  1  0
  8  5  1  0
  9  8  1  0
 10  9  1  0
 11  6  1  0
 11 10  1  0
 12 11  1  0
 13 12  1  0
 14 12  1  0
 12 15  1  1
  3 16  1  0
M  END
$$$$
