
     RDKit          3D

 21 22  0  0  0  0  0  0  0  0999 V2000
    7.1240   -0.6610   25.4780 N   0  0  0  0  0  0  0  0  0  0  0  0
    5.7680    1.2590   24.1060 C   0  0  0  0  0  0  0  0  0  0  0  0
    7.2660    1.6860   26.1670 O   0  0  0  0  0  0  0  0  0  0  0  0
    8.5930   -0.6600   25.4310 C   0  0  0  0  0  0  0  0  0  0  0  0
   10.5170   -0.0690   23.9670 N   0  0  0  0  0  0  0  0  0  0  0  0
    5.1690    0.4370   26.4810 O   0  0  0  0  0  0  0  0  0  0  0  0
   10.2030    5.0790   23.9700 S   0  0  2  0  0  0  0  0  0  0  0  0
    9.0580   -0.1530   24.0780 C   0  0  0  0  0  0  0  0  0  0  0  0
    9.0250    5.3420   22.9160 N   0  0  0  0  0  0  0  0  0  0  0  0
    9.5930    4.8660   25.2490 O   0  0  0  0  0  0  0  0  0  0  0  0
   11.1860   -1.3330   23.6450 C   0  0  0  0  0  0  0  0  0  0  0  0
   11.1470    6.1460   23.8260 O   0  0  0  0  0  0  0  0  0  0  0  0
   12.0910   -1.2070   22.4310 C   0  0  0  0  0  0  0  0  0  0  0  0
   13.0740   -0.0690   22.6120 C   0  0  0  0  0  0  0  0  0  0  0  0
   12.3600    1.2230   22.9180 C   0  0  0  0  0  0  0  0  0  0  0  0
   12.8820    2.4560   22.5350 C   0  0  0  0  0  0  0  0  0  0  0  0
   12.2240    3.6340   22.8350 C   0  0  0  0  0  0  0  0  0  0  0  0
   11.0280    3.5810   23.5300 C   0  0  0  0  0  0  0  0  0  0  0  0
   10.4760    2.3690   23.9170 C   0  0  0  0  0  0  0  0  0  0  0  0
   11.1400    1.1840   23.6040 C   0  0  0  0  0  0  0  0  0  0  0  0
    6.3200    0.7310   25.6830 S   0  0  2  0  0  0  0  0  0  0  0  0
  4  1  1  0
  8  5  1  0
  8  4  1  0
  7  9  1  6
 10  7  1  0
 11  5  1  0
 12  7  1  0
 13 11  1  0
 14 13  1  0
 15 14  1  0
 16 15  1  0
 17 16  1  0
 18  7  1  0
 18 17  1  0
 19 18  1  0
 20 19  1  0
 20  5  1  0
 20 15  1  0
 21  6  1  0
 21  3  1  0
 21  2  1  6
 21  1  1  0
M  END
$$$$
