
     RDKit          3D

  8  8  0  0  0  0  0  0  0  0999 V2000
   -0.6990    5.2550  -18.2240 O   0  0  0  0  0  0  0  0  0  0  0  0
   -0.9290    5.2610  -16.9310 N   0  0  0  0  0  0  0  0  0  0  0  0
   -0.7900    6.4970  -16.4430 C   0  0  0  0  0  0  0  0  0  0  0  0
   -0.4400    7.3220  -17.5580 C   0  0  0  0  0  0  0  0  0  0  0  0
   -0.4040    6.4430  -18.6640 C   0  0  0  0  0  0  0  0  0  0  0  0
   -0.0790    6.8190  -20.1030 C   0  0  0  0  0  0  0  0  0  0  0  0
   -0.9700    6.9380  -14.9820 C   0  0  0  0  0  0  0  0  0  0  0  0
   -0.2250    7.7240  -14.5090 O   0  0  0  0  0  0  0  0  0  0  0  0
  2  1  1  0
  3  2  1  0
  4  3  1  0
  5  1  1  0
  5  4  1  0
  6  5  1  0
  7  3  1  0
  8  7  1  0
M  END
