
     RDKit          3D

 18 19  0  0  0  0  0  0  0  0999 V2000
    7.7500   -0.3210   21.3050 N   0  0  0  0  0  0  0  0  0  0  0  0
    8.8230    1.1110   24.0550 C   0  0  0  0  0  0  0  0  0  0  0  0
    9.3860    1.2270   21.1020 O   0  0  0  0  0  0  0  0  0  0  0  0
    9.3060   -0.0220   23.1470 C   0  0  2  0  0  0  0  0  0  0  0  0
    6.6940    0.3710   17.8250 N   0  0  0  0  0  0  0  0  0  0  0  0
   10.8470   -0.2020   23.1870 C   0  0  1  0  0  0  0  0  0  0  0  0
   11.3860   -0.4570   24.6050 C   0  0  0  0  0  0  0  0  0  0  0  0
   12.9110   -0.5840   24.6400 C   0  0  0  0  0  0  0  0  0  0  0  0
   13.4000   -1.6610   23.6870 C   0  0  0  0  0  0  0  0  0  0  0  0
   12.8950   -1.3950   22.2750 C   0  0  0  0  0  0  0  0  0  0  0  0
   11.3690   -1.2890   22.2360 C   0  0  0  0  0  0  0  0  0  0  0  0
    8.8470    0.3330   21.7360 C   0  0  0  0  0  0  0  0  0  0  0  0
    6.9660    0.1270   20.2070 C   0  0  0  0  0  0  0  0  0  0  0  0
    7.3640   -0.0900   18.8870 C   0  0  0  0  0  0  0  0  0  0  0  0
    5.5670    1.0510   18.0550 C   0  0  0  0  0  0  0  0  0  0  0  0
    5.0780    1.3120   19.3210 C   0  0  0  0  0  0  0  0  0  0  0  0
    5.7840    0.8720   20.4350 C   0  0  0  0  0  0  0  0  0  0  0  0
    5.3290    1.2530   21.8210 C   0  0  0  0  0  0  0  0  0  0  0  0
  4  2  1  1
  6  4  1  0
  6  7  1  1
  8  7  1  0
  9  8  1  0
 10  9  1  0
 11  6  1  0
 11 10  1  0
 12  3  2  0
 12  1  1  0
 12  4  1  0
 13  1  1  0
 14 13  1  0
 14  5  2  0
 15  5  1  0
 16 15  2  0
 17 16  1  0
 17 13  2  0
 18 17  1  0
M  END
