
     RDKit          3D

 20 21  0  0  0  0  0  0  0  0999 V2000
    6.5860    0.4940   17.2880 N   0  0  0  0  0  0  0  0  0  0  0  0
    5.6370    0.6650   19.8880 C   0  0  0  0  0  0  0  0  0  0  0  0
   13.1320    0.0470   23.2030 C   0  0  0  0  0  0  0  0  0  0  0  0
    8.9150    1.0860   21.0760 O   0  0  0  0  0  0  0  0  0  0  0  0
   10.4000   -0.4960   22.9790 C   0  0  1  0  0  0  0  0  0  0  0  0
    4.9610    1.3070   18.8610 C   0  0  0  0  0  0  0  0  0  0  0  0
    8.4240    0.0170   21.4300 C   0  0  0  0  0  0  0  0  0  0  0  0
    6.8020   -0.0800   19.6140 C   0  0  1  0  0  0  0  0  0  0  0  0
    7.2190   -0.1280   18.2870 C   0  0  0  0  0  0  0  0  0  0  0  0
   12.2170    0.7160   24.0010 C   0  0  0  0  0  0  0  0  0  0  0  0
   11.3170   -1.1920   22.2010 C   0  0  0  0  0  0  0  0  0  0  0  0
   10.8620    0.4370   23.8970 C   0  0  0  0  0  0  0  0  0  0  0  0
   12.6640   -0.9210   22.3350 C   0  0  2  0  0  0  0  0  0  0  0  0
    4.1090    1.4420   21.5650 C   0  0  0  0  0  0  0  0  0  0  0  0
    7.4790   -0.6410   20.7190 N   0  0  0  0  0  0  0  0  0  0  0  0
    5.2910    0.7190   21.2100 O   0  0  0  0  0  0  0  0  0  0  0  0
    8.3940   -1.9560   22.9000 O   0  0  0  0  0  0  0  0  0  0  0  0
    8.9150   -0.6450   22.7150 C   0  0  1  0  0  0  0  0  0  0  0  0
   13.9120   -1.9930   21.3880 Br  0  0  0  0  0  0  0  0  0  0  0  0
    5.4820    1.1910   17.5870 C   0  0  0  0  0  0  0  0  0  0  0  0
  6  2  1  0
  7  4  1  0
  8  2  1  0
  9  8  1  0
  9  1  1  0
 10  3  1  0
  5 11  1  6
 12  5  1  0
 12 10  1  0
 13 11  1  0
 13  3  1  0
  8 15  1  1
 15  7  1  0
 16 14  1  0
 16  2  1  0
 18  7  1  0
 18 17  1  6
 18  5  1  0
 13 19  1  1
 20  6  1  0
 20  1  1  0
M  END
$$$$
