
     RDKit          3D

 15 16  0  0  0  0  0  0  0  0999 V2000
   26.0770  -10.3880    4.1090 C   0  0  0  0  0  0  0  0  0  0  0  0
   26.4320  -10.3160    5.6010 C   0  0  0  0  0  0  0  0  0  0  0  0
   27.9430  -10.8200    7.2050 C   0  0  0  0  0  0  0  0  0  0  0  0
   27.7370  -11.8120    8.3390 C   0  0  0  0  0  0  0  0  0  0  0  0
   27.0480  -13.4200    6.8720 C   0  0  0  0  0  0  0  0  0  0  0  0
   27.1470  -12.4830    5.6740 C   0  0  0  0  0  0  0  0  0  0  0  0
   23.4180   -9.4780    4.7100 C   0  0  0  0  0  0  0  0  0  0  0  0
   23.6960   -8.1830    4.3150 C   0  0  0  0  0  0  0  0  0  0  0  0
   23.0260   -7.1320    4.8960 C   0  0  0  0  0  0  0  0  0  0  0  0
   22.0750   -7.3560    5.8790 C   0  0  0  0  0  0  0  0  0  0  0  0
   21.8020   -8.6510    6.2760 C   0  0  0  0  0  0  0  0  0  0  0  0
   22.4780   -9.7180    5.6940 C   0  0  0  0  0  0  0  0  0  0  0  0
   27.3450  -11.1340    5.9810 N   0  0  0  0  0  0  0  0  0  0  0  0
   27.9240  -13.0960    7.8970 O   0  0  0  0  0  0  0  0  0  0  0  0
   24.3240  -10.8400    3.9410 S   0  0  0  0  0  0  0  0  0  0  0  0
  2  1  1  0
  4  3  1  0
  6  5  1  0
  8  7  2  0
  9  8  1  0
 10  9  2  0
 11 10  1  0
 12  7  1  0
 12 11  2  0
 13  6  1  0
 13  2  1  0
 13  3  1  0
 14  5  1  0
 14  4  1  0
 15  7  1  0
 15  1  1  0
M  END
