
     RDKit          3D

 22 24  0  0  0  0  0  0  0  0999 V2000
    8.9240    0.5800   21.2720 O   0  0  0  0  0  0  0  0  0  0  0  0
    8.3640   -0.5020   21.4240 C   0  0  0  0  0  0  0  0  0  0  0  0
    7.3470   -0.9360   20.6510 N   0  0  0  0  0  0  0  0  0  0  0  0
    6.6480   -0.2260   19.6590 C   0  0  0  0  0  0  0  0  0  0  0  0
    5.5120    0.5470   20.0470 C   0  0  0  0  0  0  0  0  0  0  0  0
    5.0520    0.6560   21.3830 C   0  0  0  0  0  0  0  0  0  0  0  0
    3.9780    1.4410   21.6920 C   0  0  0  0  0  0  0  0  0  0  0  0
    3.3100    2.1480   20.7050 C   0  0  0  0  0  0  0  0  0  0  0  0
    3.7120    2.0730   19.4030 C   0  0  0  0  0  0  0  0  0  0  0  0
    4.8200    1.2710   19.0380 C   0  0  0  0  0  0  0  0  0  0  0  0
    5.3000    1.1710   17.7110 C   0  0  0  0  0  0  0  0  0  0  0  0
    6.3540    0.4560   17.3530 N   0  0  0  0  0  0  0  0  0  0  0  0
    7.0020   -0.2150   18.3140 C   0  0  0  0  0  0  0  0  0  0  0  0
    8.7600   -1.4370   22.5460 C   0  0  0  0  0  0  0  0  0  0  0  0
   10.1880   -1.1660   22.9390 C   0  0  0  0  0  0  0  0  0  0  0  0
   11.2190   -1.4220   22.0980 C   0  0  0  0  0  0  0  0  0  0  0  0
   12.5200   -0.9060   22.3320 C   0  0  0  0  0  0  0  0  0  0  0  0
   13.5160   -1.1500   21.4360 C   0  0  0  0  0  0  0  0  0  0  0  0
   14.3700   -1.3700   20.6440 C   0  0  0  0  0  0  0  0  0  0  0  0
   12.7090   -0.1220   23.5230 C   0  0  0  0  0  0  0  0  0  0  0  0
   11.6740    0.0730   24.3990 C   0  0  0  0  0  0  0  0  0  0  0  0
   10.4130   -0.4490   24.1240 C   0  0  0  0  0  0  0  0  0  0  0  0
  2  1  2  0
  3  2  1  0
  4  3  1  0
  5  4  1  0
  6  5  2  0
  7  6  1  0
  8  7  2  0
  9  8  1  0
 10  9  2  0
 10  5  1  0
 11 10  1  0
 12 11  2  0
 13 12  1  0
 13  4  2  0
 14  2  1  0
 15 14  1  0
 16 15  2  0
 17 16  1  0
 18 17  1  0
 19 18  3  0
 20 17  2  0
 21 20  1  0
 22 15  1  0
 22 21  2  0
M  END
