
     RDKit          3D

 13 13  0  0  0  0  0  0  0  0999 V2000
    6.8380    2.6730   -6.5560 N   0  0  0  0  0  0  0  0  0  0  0  0
    4.4090   -2.0430   -8.3800 C   0  0  0  0  0  0  0  0  0  0  0  0
    4.6020    2.2820   -5.7650 O   0  0  0  0  0  0  0  0  0  0  0  0
    5.8550   -1.7840   -8.1700 C   0  0  0  0  0  0  0  0  0  0  0  0
    6.4060    0.7010   -5.1720 O   0  0  0  0  0  0  0  0  0  0  0  0
    6.7260   -2.8530   -8.3920 C   0  0  0  0  0  0  0  0  0  0  0  0
    8.1000   -2.6590   -8.2380 C   0  0  0  0  0  0  0  0  0  0  0  0
    8.6310   -1.4200   -7.8460 C   0  0  0  0  0  0  0  0  0  0  0  0
    7.7560   -0.3620   -7.6240 C   0  0  0  0  0  0  0  0  0  0  0  0
    6.3690   -0.5150   -7.7850 C   0  0  0  0  0  0  0  0  0  0  0  0
    5.5080    0.7170   -7.5940 C   0  0  0  0  0  0  0  0  0  0  0  0
    8.9280   -3.6670   -8.5000 F   0  0  0  0  0  0  0  0  0  0  0  0
    5.7670    1.5550   -6.1040 S   0  0  2  0  0  0  0  0  0  0  0  0
  4  2  1  0
  6  4  2  0
  7  6  1  0
  8  7  2  0
  9  8  1  0
 10  9  2  0
 10  4  1  0
 11 10  1  0
 12  7  1  0
 13  3  2  0
 13 11  1  0
 13  1  1  6
 13  5  2  0
M  END
