
     RDKit          3D

 16 17  0  0  0  0  0  0  0  0999 V2000
    9.3540    0.8930   20.8550 O   0  0  0  0  0  0  0  0  0  0  0  0
    8.6500    0.0240   21.3600 C   0  0  0  0  0  0  0  0  0  0  0  0
    9.1200   -0.8120   22.5320 C   0  0  0  0  0  0  0  0  0  0  0  0
   10.5920   -0.5690   22.7600 C   0  0  0  0  0  0  0  0  0  0  0  0
   11.0280    0.4040   23.6500 C   0  0  0  0  0  0  0  0  0  0  0  0
   12.3710    0.7430   23.7300 C   0  0  0  0  0  0  0  0  0  0  0  0
   13.3010    0.0980   22.9300 C   0  0  0  0  0  0  0  0  0  0  0  0
   11.5310   -1.2370   21.9830 C   0  0  0  0  0  0  0  0  0  0  0  0
   12.8640   -0.8990   22.0810 C   0  0  0  0  0  0  0  0  0  0  0  0
   14.0280   -1.8200   21.1760 Cl  0  0  0  0  0  0  0  0  0  0  0  0
    7.3450   -0.1530   21.0040 N   0  0  0  0  0  0  0  0  0  0  0  0
    6.8280    0.1540   19.7330 C   0  0  0  0  0  0  0  0  0  0  0  0
    5.5280    0.2080   19.3310 C   0  0  0  0  0  0  0  0  0  0  0  0
    5.5210    0.4560   18.0180 N   0  0  0  0  0  0  0  0  0  0  0  0
    6.7720    0.5270   17.5190 N   0  0  0  0  0  0  0  0  0  0  0  0
    7.5710    0.3360   18.5620 C   0  0  0  0  0  0  0  0  0  0  0  0
  2  1  2  0
  3  2  1  0
  4  3  1  0
  5  4  2  0
  6  5  1  0
  7  6  2  0
  8  4  1  0
  9  8  2  0
  9  7  1  0
 10  9  1  0
 11  2  1  0
 12 11  1  0
 13 12  1  0
 14 13  2  0
 15 14  1  0
 16 15  1  0
 16 12  2  0
M  END
