
     RDKit          3D

 17 18  0  0  0  0  0  0  0  0999 V2000
   24.8550  -14.6940   24.8420 C   0  0  0  0  0  0  0  0  0  0  0  0
   23.9810  -15.0290   26.0550 C   0  0  0  0  0  0  0  0  0  0  0  0
   23.8080  -14.2270   26.9100 O   0  0  0  0  0  0  0  0  0  0  0  0
   23.3170  -16.3080   26.1710 N   0  0  0  0  0  0  0  0  0  0  0  0
   23.5040  -17.3570   25.1920 C   0  0  0  0  0  0  0  0  0  0  0  0
   24.7570  -17.9410   25.1780 C   0  0  0  0  0  0  0  0  0  0  0  0
   25.0320  -18.9740   24.3120 C   0  0  0  0  0  0  0  0  0  0  0  0
   24.0640  -19.4220   23.4300 C   0  0  0  0  0  0  0  0  0  0  0  0
   24.4480  -20.5040   22.6340 O   0  0  0  0  0  0  0  0  0  0  0  0
   24.2600  -20.6320   21.2520 C   0  0  0  0  0  0  0  0  0  0  0  0
   24.9050  -19.8600   20.3900 N   0  0  0  0  0  0  0  0  0  0  0  0
   24.7490  -20.0600   19.0930 C   0  0  0  0  0  0  0  0  0  0  0  0
   23.9160  -21.0810   18.6310 C   0  0  0  0  0  0  0  0  0  0  0  0
   23.2750  -21.8830   19.5750 C   0  0  0  0  0  0  0  0  0  0  0  0
   23.4890  -21.6340   20.8500 N   0  0  0  0  0  0  0  0  0  0  0  0
   22.7900  -18.8650   23.4610 C   0  0  0  0  0  0  0  0  0  0  0  0
   22.5050  -17.8200   24.3390 C   0  0  0  0  0  0  0  0  0  0  0  0
  2  1  1  0
  3  2  2  0
  4  2  1  0
  5  4  1  0
  6  5  2  0
  7  6  1  0
  8  7  2  0
  9  8  1  0
 10  9  1  0
 11 10  2  0
 12 11  1  0
 13 12  2  0
 14 13  1  0
 15 14  2  0
 15 10  1  0
 16  8  1  0
 17 16  2  0
 17  5  1  0
M  END
