
     RDKit          3D

 19 20  0  0  0  0  0  0  0  0999 V2000
    7.2980   -0.5040   20.9930 N   0  0  0  0  0  0  0  0  0  0  0  0
    5.3560    1.2760   17.8150 C   0  0  0  0  0  0  0  0  0  0  0  0
    8.4750   -0.0680   21.5110 C   0  0  0  0  0  0  0  0  0  0  0  0
   11.5320   -1.1260   21.9710 C   0  0  0  0  0  0  0  0  0  0  0  0
    9.1190   -0.8710   22.6260 C   0  0  0  0  0  0  0  0  0  0  0  0
   13.2800    0.1720   23.0100 C   0  0  0  0  0  0  0  0  0  0  0  0
   12.3300    0.7890   23.8090 C   0  0  0  0  0  0  0  0  0  0  0  0
   10.9910    0.4480   23.6920 C   0  0  0  0  0  0  0  0  0  0  0  0
    7.0680    0.0200   18.6550 C   0  0  0  0  0  0  0  0  0  0  0  0
    5.4470    0.9460   20.1840 C   0  0  0  0  0  0  0  0  0  0  0  0
    6.5950    0.1860   19.9550 C   0  0  0  0  0  0  0  0  0  0  0  0
    4.8190    1.4870   19.0680 C   0  0  0  0  0  0  0  0  0  0  0  0
    4.9130    1.2120   21.5690 C   0  0  0  0  0  0  0  0  0  0  0  0
    6.7250   -1.7730   21.4450 C   0  0  0  0  0  0  0  0  0  0  0  0
    6.4640    0.5590   17.5920 N   0  0  0  0  0  0  0  0  0  0  0  0
    9.0250    0.9450   21.0940 O   0  0  0  0  0  0  0  0  0  0  0  0
   12.8610   -0.7880   22.1100 C   0  0  0  0  0  0  0  0  0  0  0  0
   10.5790   -0.5120   22.7760 C   0  0  0  0  0  0  0  0  0  0  0  0
   14.0490   -1.6870   21.2150 Cl  0  0  0  0  0  0  0  0  0  0  0  0
  3  1  1  0
  5  3  1  0
  7  6  2  0
  8  7  1  0
 11 10  2  0
 11  9  1  0
 11  1  1  0
 12 10  1  0
 12  2  2  0
 13 10  1  0
 14  1  1  0
 15  2  1  0
 15  9  2  0
 16  3  2  0
 17  6  1  0
 17  4  2  0
 18  5  1  0
 18  8  2  0
 18  4  1  0
 19 17  1  0
M  END
