
     RDKit          3D

 26 28  0  0  0  0  0  0  0  0999 V2000
    8.4020   -0.1940   21.9590 N   0  0  0  0  0  0  0  0  0  0  0  0
    4.8190   -0.1120   21.5820 C   0  0  0  0  0  0  0  0  0  0  0  0
    8.5820   -0.0950   24.4200 C   0  0  0  0  0  0  0  0  0  0  0  0
   11.2400   -0.4810   22.5010 C   0  0  0  0  0  0  0  0  0  0  0  0
    8.2460    1.6140   20.6320 O   0  0  0  0  0  0  0  0  0  0  0  0
    3.5410    2.1500   20.5470 C   0  0  0  0  0  0  0  0  0  0  0  0
    8.9940    0.5140   23.0890 C   0  0  1  0  0  0  0  0  0  0  0  0
    6.1000    0.9890   18.2450 C   0  0  0  0  0  0  0  0  0  0  0  0
   13.2780    0.8030   22.6910 C   0  0  0  0  0  0  0  0  0  0  0  0
    6.1470   -0.1260   19.2840 C   0  0  1  0  0  0  0  0  0  0  0  0
    7.5750   -0.4900   19.7100 C   0  0  0  0  0  0  0  0  0  0  0  0
    3.8100    0.5330   22.2580 C   0  0  0  0  0  0  0  0  0  0  0  0
   10.5040    0.5980   22.9840 C   0  0  0  0  0  0  0  0  0  0  0  0
   12.6110   -0.3570   22.3570 C   0  0  0  0  0  0  0  0  0  0  0  0
    3.1580    1.6410   21.7760 C   0  0  0  0  0  0  0  0  0  0  0  0
    3.4280    0.0320   23.4640 F   0  0  0  0  0  0  0  0  0  0  0  0
    5.1910    0.3810   20.3340 C   0  0  1  0  0  0  0  0  0  0  0  0
   11.1670    1.7710   23.3200 C   0  0  0  0  0  0  0  0  0  0  0  0
    6.5220    1.0120   24.8390 C   0  0  0  0  0  0  0  0  0  0  0  0
    5.1350    1.8660   18.6150 N   0  0  0  0  0  0  0  0  0  0  0  0
    7.1740   -0.2120   24.5160 O   0  0  0  0  0  0  0  0  0  0  0  0
    6.8390    1.1000   17.2730 O   0  0  0  0  0  0  0  0  0  0  0  0
    4.5610    1.5200   19.8380 C   0  0  0  0  0  0  0  0  0  0  0  0
    8.0960    0.4080   20.8070 C   0  0  0  0  0  0  0  0  0  0  0  0
   13.5980   -1.8140   21.6420 Br  0  0  0  0  0  0  0  0  0  0  0  0
   12.5400    1.8760   23.1700 C   0  0  0  0  0  0  0  0  0  0  0  0
  7  3  1  1
  7  1  1  0
 10  8  1  0
 10 11  1  1
 12  2  1  0
 13  7  1  0
 13  4  1  0
 14  9  1  0
 14  4  1  0
 15  6  1  0
 15 12  1  0
 16 12  1  0
 17  2  1  6
 17 10  1  0
 18 13  1  0
 20  8  1  0
 21 19  1  0
 21  3  1  0
 22  8  1  0
 23 20  1  0
 23 17  1  0
 23  6  1  0
 24 11  1  0
 24  5  1  0
 24  1  1  0
 25 14  1  0
 26 18  1  0
 26  9  1  0
M  END
$$$$
