
     RDKit          3D

 18 19  0  0  0  0  0  0  0  0999 V2000
   14.0330   -1.6570   21.4790 Cl  0  0  0  0  0  0  0  0  0  0  0  0
   12.7480   -0.8870   22.3660 C   0  0  0  0  0  0  0  0  0  0  0  0
   13.0570    0.0960   23.2870 C   0  0  0  0  0  0  0  0  0  0  0  0
   12.0240    0.7090   23.9820 C   0  0  0  0  0  0  0  0  0  0  0  0
   10.7060    0.3570   23.7360 C   0  0  0  0  0  0  0  0  0  0  0  0
   11.4470   -1.2670   22.1130 C   0  0  0  0  0  0  0  0  0  0  0  0
   10.4170   -0.6190   22.7860 C   0  0  0  0  0  0  0  0  0  0  0  0
    9.1100   -0.8310   22.3010 N   0  0  0  0  0  0  0  0  0  0  0  0
    8.5740   -0.1020   21.2770 C   0  0  0  0  0  0  0  0  0  0  0  0
    9.1180    0.8940   20.8200 O   0  0  0  0  0  0  0  0  0  0  0  0
    7.3850   -0.5870   20.8140 N   0  0  0  0  0  0  0  0  0  0  0  0
    6.6890    0.0420   19.7590 C   0  0  0  0  0  0  0  0  0  0  0  0
    5.5170    0.7730   20.0290 C   0  0  0  0  0  0  0  0  0  0  0  0
    5.0210    0.9980   21.4350 C   0  0  0  0  0  0  0  0  0  0  0  0
    7.1570   -0.0200   18.4460 C   0  0  0  0  0  0  0  0  0  0  0  0
    6.5400    0.5750   17.4190 N   0  0  0  0  0  0  0  0  0  0  0  0
    5.4130    1.2500   17.6840 C   0  0  0  0  0  0  0  0  0  0  0  0
    4.8740    1.3680   18.9500 C   0  0  0  0  0  0  0  0  0  0  0  0
  2  1  1  0
  3  2  2  0
  4  3  1  0
  5  4  2  0
  6  2  1  0
  7  5  1  0
  7  6  2  0
  8  7  1  0
  9  8  1  0
 10  9  2  0
 11  9  1  0
 12 11  1  0
 13 12  2  0
 14 13  1  0
 15 12  1  0
 16 15  2  0
 17 16  1  0
 18 17  2  0
 18 13  1  0
M  END
