
     RDKit          3D

 18 19  0  0  0  0  0  0  0  0999 V2000
    6.6080    0.8220   17.6180 N   0  0  0  0  0  0  0  0  0  0  0  0
    4.7680    1.0070   21.4710 C   0  0  0  0  0  0  0  0  0  0  0  0
    8.9950    1.0070   21.1110 O   0  0  0  0  0  0  0  0  0  0  0  0
   13.8220   -1.8030   21.4430 Cl  0  0  0  0  0  0  0  0  0  0  0  0
    5.3680    0.8650   20.0950 C   0  0  0  0  0  0  0  0  0  0  0  0
    7.1600    0.1630   18.6560 N   0  0  0  0  0  0  0  0  0  0  0  0
    4.8180    1.5240   19.0070 C   0  0  0  0  0  0  0  0  0  0  0  0
    7.2570   -0.4450   20.9070 N   0  0  0  0  0  0  0  0  0  0  0  0
    5.4670    1.4850   17.7890 C   0  0  0  0  0  0  0  0  0  0  0  0
    6.5770    0.1660   19.8540 C   0  0  0  0  0  0  0  0  0  0  0  0
    8.3990   -0.0120   21.4740 C   0  0  0  0  0  0  0  0  0  0  0  0
    8.8530   -0.8470   22.6560 C   0  0  0  0  0  0  0  0  0  0  0  0
   10.3170   -0.6520   22.9730 C   0  0  0  0  0  0  0  0  0  0  0  0
   10.7210    0.1950   23.9970 C   0  0  0  0  0  0  0  0  0  0  0  0
   12.0630    0.4760   24.2000 C   0  0  0  0  0  0  0  0  0  0  0  0
   13.0260   -0.0790   23.3680 C   0  0  0  0  0  0  0  0  0  0  0  0
   12.6210   -0.9690   22.3910 C   0  0  0  0  0  0  0  0  0  0  0  0
   11.2870   -1.2660   22.1870 C   0  0  0  0  0  0  0  0  0  0  0  0
  5  2  1  0
  6  1  2  0
  7  5  1  0
  9  7  2  0
  9  1  1  0
 10  5  2  0
 10  8  1  0
 10  6  1  0
 11  8  1  0
 11  3  2  0
 12 11  1  0
 13 12  1  0
 14 13  2  0
 15 14  1  0
 16 15  2  0
 17  4  1  0
 17 16  1  0
 18 13  1  0
 18 17  2  0
M  END
