
     RDKit          3D

 18 19  0  0  0  0  0  0  0  0999 V2000
    7.8240   -0.3630   21.3240 N   0  0  0  0  0  0  0  0  0  0  0  0
    5.6430    1.0220   18.0780 C   0  0  0  0  0  0  0  0  0  0  0  0
    9.3810   -0.0700   23.1660 C   0  0  1  0  0  0  0  0  0  0  0  0
    8.9230    0.2880   21.7560 C   0  0  0  0  0  0  0  0  0  0  0  0
   10.9220   -0.2540   23.2050 C   0  0  2  0  0  0  0  0  0  0  0  0
   12.9670   -1.4490   22.2890 C   0  0  0  0  0  0  0  0  0  0  0  0
   13.4720   -1.7190   23.7010 C   0  0  0  0  0  0  0  0  0  0  0  0
   12.9860   -0.6440   24.6560 C   0  0  0  0  0  0  0  0  0  0  0  0
    5.8600    0.8370   20.4580 C   0  0  0  0  0  0  0  0  0  0  0  0
    7.4370   -0.1250   18.9070 C   0  0  0  0  0  0  0  0  0  0  0  0
    7.0410    0.0900   20.2270 C   0  0  0  0  0  0  0  0  0  0  0  0
    5.1540    1.2810   19.3450 C   0  0  0  0  0  0  0  0  0  0  0  0
    5.4060    1.2160   21.8440 C   0  0  0  0  0  0  0  0  0  0  0  0
    8.9010    1.0610   24.0770 C   0  0  0  0  0  0  0  0  0  0  0  0
    6.7680    0.3400   17.8460 N   0  0  0  0  0  0  0  0  0  0  0  0
    9.4630    1.1830   21.1240 O   0  0  0  0  0  0  0  0  0  0  0  0
   11.4410   -1.3390   22.2510 C   0  0  0  0  0  0  0  0  0  0  0  0
   11.4610   -0.5130   24.6230 C   0  0  0  0  0  0  0  0  0  0  0  0
  4  1  1  0
  4  3  1  0
  5  3  1  0
  7  6  1  0
  8  7  1  0
 11 10  1  0
 11  9  2  0
 11  1  1  0
 12  9  1  0
 12  2  2  0
 13  9  1  0
  3 14  1  1
 15 10  2  0
 15  2  1  0
 16  4  2  0
 17  6  1  0
  5 17  1  6
 18  8  1  0
 18  5  1  0
M  END
