
     RDKit          3D

 19 20  0  0  0  0  0  0  0  0999 V2000
    7.9080   -3.5440   20.3200 C   0  0  0  0  0  0  0  0  0  0  0  0
    6.7290   -4.4480   20.5600 C   0  0  0  0  0  0  0  0  0  0  0  0
    5.9040   -4.6290   19.6750 O   0  0  0  0  0  0  0  0  0  0  0  0
    6.6270   -5.0350   21.7740 N   0  0  0  0  0  0  0  0  0  0  0  0
    7.4330   -4.6980   22.9480 C   0  0  0  0  0  0  0  0  0  0  0  0
    6.5350   -4.2580   24.0720 C   0  0  0  0  0  0  0  0  0  0  0  0
    5.6640   -6.0940   22.0660 C   0  0  0  0  0  0  0  0  0  0  0  0
    4.7530   -5.6710   23.1880 C   0  0  0  0  0  0  0  0  0  0  0  0
    5.5740   -5.3340   24.3610 N   0  0  0  0  0  0  0  0  0  0  0  0
    4.8370   -5.2940   25.8270 S   0  0  2  0  0  0  0  0  0  0  0  0
    5.8790   -5.1050   26.7870 O   0  0  0  0  0  0  0  0  0  0  0  0
    4.0030   -6.4540   25.9050 O   0  0  0  0  0  0  0  0  0  0  0  0
    3.7780   -3.8790   25.8830 C   0  0  0  0  0  0  0  0  0  0  0  0
    4.3070   -2.5950   26.0450 C   0  0  0  0  0  0  0  0  0  0  0  0
    5.6420   -2.4100   26.1500 F   0  0  0  0  0  0  0  0  0  0  0  0
    2.4020   -4.0360   25.7820 C   0  0  0  0  0  0  0  0  0  0  0  0
    1.5770   -2.9270   25.8380 C   0  0  0  0  0  0  0  0  0  0  0  0
    2.1170   -1.6690   25.9930 C   0  0  0  0  0  0  0  0  0  0  0  0
    3.4840   -1.4920   26.0970 C   0  0  0  0  0  0  0  0  0  0  0  0
  2  1  1  0
  3  2  1  0
  4  2  1  0
  5  4  1  0
  6  5  1  0
  7  4  1  0
  8  7  1  0
  9  8  1  0
  9  6  1  0
 10  9  1  0
 10 11  1  1
 12 10  1  0
 13 10  1  0
 14 13  1  0
 15 14  1  0
 16 13  1  0
 17 16  1  0
 18 17  1  0
 19 18  1  0
 19 14  1  0
M  END
$$$$
