
     RDKit          3D

 25 26  0  0  0  0  0  0  0  0999 V2000
    7.2620   -1.6980   21.4380 N   0  0  0  0  0  0  0  0  0  0  0  0
    9.6000    1.1510   21.0990 O   0  0  0  0  0  0  0  0  0  0  0  0
    8.3040    0.5010   22.8430 N   0  0  0  0  0  0  0  0  0  0  0  0
    6.5950    0.5800   17.4560 N   0  0  0  0  0  0  0  0  0  0  0  0
    8.0500   -0.6570   20.7280 C   0  0  2  0  0  0  0  0  0  0  0  0
    7.0680   -5.9740   27.4410 N   0  0  0  0  0  0  0  0  0  0  0  0
    8.7480    0.4150   21.5810 C   0  0  0  0  0  0  0  0  0  0  0  0
    8.8850    1.3480   23.9060 C   0  0  2  0  0  0  0  0  0  0  0  0
    8.7990    2.8060   23.4700 C   0  0  0  0  0  0  0  0  0  0  0  0
   10.3370    0.9390   24.1220 C   0  0  0  0  0  0  0  0  0  0  0  0
    8.0810    1.1330   25.1810 C   0  0  0  0  0  0  0  0  0  0  0  0
    7.0990   -0.0330   19.7230 C   0  0  2  0  0  0  0  0  0  0  0  0
    7.3770   -0.0010   18.3670 C   0  0  0  0  0  0  0  0  0  0  0  0
    5.4680    1.1460   17.8870 C   0  0  0  0  0  0  0  0  0  0  0  0
    5.0980    1.1790   19.2110 C   0  0  0  0  0  0  0  0  0  0  0  0
    5.9310    0.5840   20.1360 C   0  0  0  0  0  0  0  0  0  0  0  0
    7.8760   -2.6830   22.2790 C   0  0  1  0  0  0  0  0  0  0  0  0
    9.2470   -2.6570   22.5180 C   0  0  0  0  0  0  0  0  0  0  0  0
    9.8120   -3.5310   23.4290 C   0  0  0  0  0  0  0  0  0  0  0  0
    9.0390   -4.4650   24.1050 C   0  0  1  0  0  0  0  0  0  0  0  0
    9.6460   -5.3410   25.1790 C   0  0  0  0  0  0  0  0  0  0  0  0
    9.2340   -4.8170   26.5670 C   0  0  0  0  0  0  0  0  0  0  0  0
    8.0100   -5.4470   27.0680 C   0  0  0  0  0  0  0  0  0  0  0  0
    7.6800   -4.5200   23.8200 C   0  0  0  0  0  0  0  0  0  0  0  0
    7.0980   -3.6360   22.9270 C   0  0  0  0  0  0  0  0  0  0  0  0
  5  1  1  1
  7  5  1  0
  7  2  1  0
  7  3  1  0
  8  3  1  0
  8  9  1  6
 10  8  1  0
 11  8  1  0
 12  5  1  0
 12 13  1  1
 13  4  1  0
 14  4  1  0
 15 14  1  0
 16 15  1  0
 16 12  1  0
 17  1  1  1
 18 17  1  0
 19 18  1  0
 20 19  1  0
 20 21  1  1
 22 21  1  0
 23  6  1  0
 23 22  1  0
 24 20  1  0
 25 24  1  0
 25 17  1  0
M  END
