
     RDKit          3D

 30 33  0  0  0  0  0  0  0  0999 V2000
    9.5170    0.9570   21.1940 O   0  0  0  0  0  0  0  0  0  0  0  0
    9.1280   -0.0580   21.7660 C   0  0  0  0  0  0  0  0  0  0  0  0
    8.1210   -0.9950   21.1030 C   0  0  0  0  0  0  0  0  0  0  0  0
    7.3880   -0.3260   20.0530 N   0  0  0  0  0  0  0  0  0  0  0  0
    6.2300    0.3870   20.1210 C   0  0  0  0  0  0  0  0  0  0  0  0
    5.4210    0.8050   21.1700 C   0  0  0  0  0  0  0  0  0  0  0  0
    4.3250    1.6000   20.8600 C   0  0  0  0  0  0  0  0  0  0  0  0
    4.0440    1.9500   19.5420 C   0  0  0  0  0  0  0  0  0  0  0  0
    4.8570    1.5210   18.4980 C   0  0  0  0  0  0  0  0  0  0  0  0
    5.9620    0.7290   18.8000 C   0  0  0  0  0  0  0  0  0  0  0  0
    6.9570    0.2130   18.0020 N   0  0  0  0  0  0  0  0  0  0  0  0
    7.8100   -0.4080   18.7660 N   0  0  0  0  0  0  0  0  0  0  0  0
    9.5540   -0.4070   23.0140 N   0  0  0  0  0  0  0  0  0  0  0  0
   10.6050    0.3930   23.6320 C   0  0  0  0  0  0  0  0  0  0  0  0
   11.8710   -0.3950   23.8430 C   0  0  0  0  0  0  0  0  0  0  0  0
   12.6020   -0.8470   22.7850 C   0  0  0  0  0  0  0  0  0  0  0  0
   13.8690   -1.8640   23.2760 S   0  0  0  0  0  0  0  0  0  0  0  0
   13.4670   -1.7090   24.9470 C   0  0  0  0  0  0  0  0  0  0  0  0
   12.3760   -0.8820   25.0850 C   0  0  0  0  0  0  0  0  0  0  0  0
    9.0500   -1.5340   23.7360 C   0  0  0  0  0  0  0  0  0  0  0  0
    9.6990   -2.7660   23.6590 C   0  0  0  0  0  0  0  0  0  0  0  0
    9.2930   -3.8190   24.4590 C   0  0  0  0  0  0  0  0  0  0  0  0
    7.9590   -1.3890   24.5940 C   0  0  0  0  0  0  0  0  0  0  0  0
    7.5500   -2.4460   25.3870 C   0  0  0  0  0  0  0  0  0  0  0  0
    8.2280   -3.6620   25.3420 C   0  0  0  0  0  0  0  0  0  0  0  0
    7.9670   -4.6950   26.2730 N   0  0  0  0  0  0  0  0  0  0  0  0
    6.8390   -4.8860   27.0290 C   0  0  0  0  0  0  0  0  0  0  0  0
    5.7490   -4.3710   26.7840 O   0  0  0  0  0  0  0  0  0  0  0  0
    7.0230   -5.7050   28.0770 N   0  0  0  0  0  0  0  0  0  0  0  0
    5.9570   -6.0220   29.0100 C   0  0  0  0  0  0  0  0  0  0  0  0
  2  1  2  0
  3  2  1  0
  4  3  1  0
  5  4  1  0
  6  5  2  0
  7  6  1  0
  8  7  2  0
  9  8  1  0
 10  9  2  0
 10  5  1  0
 11 10  1  0
 12 11  2  0
 12  4  1  0
 13  2  1  0
 14 13  1  0
 15 14  1  0
 16 15  2  0
 17 16  1  0
 18 17  1  0
 19 18  2  0
 19 15  1  0
 20 13  1  0
 21 20  2  0
 22 21  1  0
 23 20  1  0
 24 23  2  0
 25 24  1  0
 25 22  2  0
 26 25  1  0
 27 26  1  0
 28 27  2  0
 29 27  1  0
 30 29  1  0
M  END
