
     RDKit          3D

 26 28  0  0  0  0  0  0  0  0999 V2000
    8.3470   -0.2040   21.9160 N   0  0  0  0  0  0  0  0  0  0  0  0
    6.5740   -1.4060   24.5300 C   0  0  0  0  0  0  0  0  0  0  0  0
    7.2140   -0.1430   24.6310 O   0  0  0  0  0  0  0  0  0  0  0  0
    8.6000   -0.2100   24.3720 C   0  0  0  0  0  0  0  0  0  0  0  0
    5.0800    1.9120   18.5900 N   0  0  0  0  0  0  0  0  0  0  0  0
    8.1920    1.6250   20.6170 O   0  0  0  0  0  0  0  0  0  0  0  0
    8.9320    0.4850   23.0610 C   0  0  1  0  0  0  0  0  0  0  0  0
    6.7930    1.1550   17.2550 O   0  0  0  0  0  0  0  0  0  0  0  0
    8.0360    0.4170   20.7760 C   0  0  0  0  0  0  0  0  0  0  0  0
    7.5060   -0.4650   19.6670 C   0  0  0  0  0  0  0  0  0  0  0  0
    6.0800   -0.0880   19.2470 C   0  0  2  0  0  0  0  0  0  0  0  0
    6.0440    1.0360   18.2190 C   0  0  0  0  0  0  0  0  0  0  0  0
    4.4970    1.5580   19.8060 C   0  0  0  0  0  0  0  0  0  0  0  0
    3.4760    2.1860   20.5140 C   0  0  0  0  0  0  0  0  0  0  0  0
    3.0900    1.6730   21.7410 C   0  0  0  0  0  0  0  0  0  0  0  0
    3.7390    0.5620   22.2190 C   0  0  0  0  0  0  0  0  0  0  0  0
    4.7470   -0.0840   21.5410 C   0  0  0  0  0  0  0  0  0  0  0  0
    5.1220    0.4130   20.2950 C   0  0  0  0  0  0  0  0  0  0  0  0
   10.4390    0.6060   22.9410 C   0  0  0  0  0  0  0  0  0  0  0  0
   11.0770    1.7910   23.2840 C   0  0  0  0  0  0  0  0  0  0  0  0
   12.4500    1.9220   23.1450 C   0  0  0  0  0  0  0  0  0  0  0  0
   13.2100    0.8650   22.6650 C   0  0  0  0  0  0  0  0  0  0  0  0
   12.5660   -0.3050   22.3160 C   0  0  0  0  0  0  0  0  0  0  0  0
   11.1980   -0.4550   22.4540 C   0  0  0  0  0  0  0  0  0  0  0  0
   13.5810   -1.7230   21.5600 Br  0  0  0  0  0  0  0  0  0  0  0  0
    3.3480    0.0520   23.4200 F   0  0  0  0  0  0  0  0  0  0  0  0
  3  2  1  0
  4  3  1  0
  7  4  1  1
  7  1  1  0
  9  6  2  0
  9  1  1  0
 10  9  1  0
 11 10  1  1
 12  5  1  0
 12 11  1  0
 12  8  2  0
 13  5  1  0
 14 13  2  0
 15 14  1  0
 16 15  2  0
 17 16  1  0
 18 17  2  0
 18 13  1  0
 18 11  1  0
 19  7  1  0
 20 19  2  0
 21 20  1  0
 22 21  2  0
 23 22  1  0
 24 19  1  0
 24 23  2  0
 25 23  1  0
 26 16  1  0
M  END
