
     RDKit          3D

 16 16  0  0  0  0  0  0  0  0999 V2000
    9.7080    0.9780   21.0770 O   0  0  0  0  0  0  0  0  0  0  0  0
    9.1890   -0.0170   21.5650 C   0  0  0  0  0  0  0  0  0  0  0  0
    9.7440   -0.6700   22.8080 C   0  0  0  0  0  0  0  0  0  0  0  0
   10.9270   -1.6020   22.5230 C   0  0  2  0  0  0  0  0  0  0  0  0
   11.0360   -2.6510   23.6270 C   0  0  0  0  0  0  0  0  0  0  0  0
   12.2460   -0.7940   22.3180 C   0  0  2  0  0  0  0  0  0  0  0  0
   13.4320   -1.6580   21.9170 C   0  0  0  0  0  0  0  0  0  0  0  0
   12.5990    0.0620   23.5230 C   0  0  0  0  0  0  0  0  0  0  0  0
    8.0690   -0.5870   21.0830 N   0  0  0  0  0  0  0  0  0  0  0  0
    7.2360   -0.0400   20.0750 C   0  0  0  0  0  0  0  0  0  0  0  0
    6.0150    0.5810   20.4300 C   0  0  0  0  0  0  0  0  0  0  0  0
    5.6190    0.8060   21.8670 C   0  0  0  0  0  0  0  0  0  0  0  0
    5.2070    1.0410   19.3960 C   0  0  0  0  0  0  0  0  0  0  0  0
    5.6350    0.9160   18.0890 C   0  0  0  0  0  0  0  0  0  0  0  0
    6.7990    0.3560   17.7390 N   0  0  0  0  0  0  0  0  0  0  0  0
    7.5750   -0.1160   18.7220 C   0  0  0  0  0  0  0  0  0  0  0  0
  2  1  2  0
  3  2  1  0
  4  3  1  0
  4  5  1  1
  6  4  1  0
  6  7  1  1
  8  6  1  0
  9  2  1  0
 10  9  1  0
 11 10  2  0
 12 11  1  0
 13 11  1  0
 14 13  2  0
 15 14  1  0
 16 15  2  0
 16 10  1  0
M  END
