
     RDKit          3D

 17 18  0  0  0  0  0  0  0  0999 V2000
   22.4880  -22.5790   19.7520 N   0  0  0  0  0  0  0  0  0  0  0  0
   24.9160  -19.9760   19.8940 C   0  0  0  0  0  0  0  0  0  0  0  0
   23.8170  -20.8090   20.1720 O   0  0  0  0  0  0  0  0  0  0  0  0
   23.5880  -21.8750   19.3290 C   0  0  0  0  0  0  0  0  0  0  0  0
   21.1200  -25.0440   17.3860 N   0  0  0  0  0  0  0  0  0  0  0  0
   24.2680  -22.1210   18.3520 O   0  0  0  0  0  0  0  0  0  0  0  0
   22.0380  -23.7110   19.0990 C   0  0  0  0  0  0  0  0  0  0  0  0
   21.2980  -25.8990   18.3650 C   0  0  0  0  0  0  0  0  0  0  0  0
   20.9120  -27.3220   18.2720 C   0  0  0  0  0  0  0  0  0  0  0  0
   21.5380  -23.7660   17.7910 C   0  0  0  0  0  0  0  0  0  0  0  0
   21.3470  -22.6680   16.8380 C   0  0  0  0  0  0  0  0  0  0  0  0
   20.7990  -21.4550   17.2690 C   0  0  0  0  0  0  0  0  0  0  0  0
   20.5360  -20.4360   16.3450 C   0  0  0  0  0  0  0  0  0  0  0  0
   20.8240  -20.6280   14.9920 C   0  0  0  0  0  0  0  0  0  0  0  0
   21.3830  -21.8390   14.5610 C   0  0  0  0  0  0  0  0  0  0  0  0
   21.6490  -22.8620   15.4800 C   0  0  0  0  0  0  0  0  0  0  0  0
   21.9890  -25.2560   19.8370 S   0  0  0  0  0  0  0  0  0  0  0  0
  3  2  1  0
  4  1  1  0
  4  3  1  0
  6  4  2  0
  7  1  1  0
  8  5  2  0
  9  8  1  0
 10  5  1  0
 10  7  2  0
 11 10  1  0
 12 11  2  0
 13 12  1  0
 14 13  2  0
 15 14  1  0
 16 15  2  0
 16 11  1  0
 17  8  1  0
 17  7  1  0
M  END
