
     RDKit          3D

 23 25  0  0  0  0  0  0  0  0999 V2000
    9.1190    0.5810   20.8950 O   0  0  0  0  0  0  0  0  0  0  0  0
    8.5110   -0.4690   21.0960 C   0  0  0  0  0  0  0  0  0  0  0  0
    8.9310   -1.4500   22.1750 C   0  0  0  0  0  0  0  0  0  0  0  0
   10.3240   -1.0830   22.6300 C   0  0  0  0  0  0  0  0  0  0  0  0
   11.4370   -1.5450   21.9340 C   0  0  0  0  0  0  0  0  0  0  0  0
   12.6890   -1.0570   22.2400 C   0  0  0  0  0  0  0  0  0  0  0  0
   14.0560   -1.6050   21.3140 Cl  0  0  0  0  0  0  0  0  0  0  0  0
   12.8780   -0.1260   23.2420 C   0  0  0  0  0  0  0  0  0  0  0  0
   11.7860    0.3160   23.9690 C   0  0  0  0  0  0  0  0  0  0  0  0
   10.5160   -0.1720   23.6700 C   0  0  0  0  0  0  0  0  0  0  0  0
    9.3780    0.1690   24.3470 O   0  0  0  0  0  0  0  0  0  0  0  0
    9.4700    1.1990   25.3310 C   0  0  0  0  0  0  0  0  0  0  0  0
    7.3980   -0.8370   20.4240 N   0  0  0  0  0  0  0  0  0  0  0  0
    6.6630   -0.0980   19.4840 C   0  0  0  0  0  0  0  0  0  0  0  0
    5.5040    0.5990   19.9330 C   0  0  0  0  0  0  0  0  0  0  0  0
    5.0710    0.6230   21.2830 C   0  0  0  0  0  0  0  0  0  0  0  0
    3.9710    1.3400   21.6550 C   0  0  0  0  0  0  0  0  0  0  0  0
    3.2460    2.0580   20.7190 C   0  0  0  0  0  0  0  0  0  0  0  0
    3.6290    2.0810   19.4120 C   0  0  0  0  0  0  0  0  0  0  0  0
    4.7680    1.3590   18.9810 C   0  0  0  0  0  0  0  0  0  0  0  0
    5.2430    1.3800   17.6480 C   0  0  0  0  0  0  0  0  0  0  0  0
    6.3210    0.7270   17.2300 N   0  0  0  0  0  0  0  0  0  0  0  0
    7.0030    0.0130   18.1360 C   0  0  0  0  0  0  0  0  0  0  0  0
  2  1  2  0
  3  2  1  0
  4  3  1  0
  5  4  2  0
  6  5  1  0
  7  6  1  0
  8  6  2  0
  9  8  1  0
 10  4  1  0
 10  9  2  0
 11 10  1  0
 12 11  1  0
 13  2  1  0
 14 13  1  0
 15 14  1  0
 16 15  2  0
 17 16  1  0
 18 17  2  0
 19 18  1  0
 20 19  2  0
 20 15  1  0
 21 20  1  0
 22 21  2  0
 23 22  1  0
 23 14  2  0
M  END
