
     RDKit          3D

 23 25  0  0  0  0  0  0  0  0999 V2000
    9.4540   -0.5170   21.8610 N   0  0  0  0  0  0  0  0  0  0  0  0
   13.0480   -0.8160   22.4880 C   0  0  0  0  0  0  0  0  0  0  0  0
    8.7110    1.4040   20.8730 O   0  0  0  0  0  0  0  0  0  0  0  0
   11.7560   -1.1670   22.1810 C   0  0  0  0  0  0  0  0  0  0  0  0
    6.4160    0.7400   17.4600 N   0  0  0  0  0  0  0  0  0  0  0  0
   12.8810    2.6750   23.2810 O   0  0  0  0  0  0  0  0  0  0  0  0
   10.7770   -0.1780   22.2300 C   0  0  0  0  0  0  0  0  0  0  0  0
    4.7790    1.5930   18.9820 N   0  0  0  0  0  0  0  0  0  0  0  0
   13.1120    6.5940   21.7130 O   0  0  0  0  0  0  0  0  0  0  0  0
    8.5350    0.2350   21.2110 C   0  0  0  0  0  0  0  0  0  0  0  0
   12.1650    4.4420   21.7750 N   0  0  0  0  0  0  0  0  0  0  0  0
    7.2420   -0.5000   20.9160 C   0  0  0  0  0  0  0  0  0  0  0  0
    6.4490    0.0520   19.7530 C   0  0  0  0  0  0  0  0  0  0  0  0
    6.9530    0.0410   18.4650 C   0  0  0  0  0  0  0  0  0  0  0  0
    5.3430    1.4730   17.7780 C   0  0  0  0  0  0  0  0  0  0  0  0
    5.3490    0.8720   19.9550 C   0  0  0  0  0  0  0  0  0  0  0  0
   11.1170    1.1210   22.6040 C   0  0  0  0  0  0  0  0  0  0  0  0
   12.4390    1.4230   22.9060 C   0  0  0  0  0  0  0  0  0  0  0  0
   12.0120    3.8110   23.0840 C   0  0  2  0  0  0  0  0  0  0  0  0
   12.7260    5.0250   23.6890 C   0  0  0  0  0  0  0  0  0  0  0  0
   12.7350    5.5600   22.2620 C   0  0  0  0  0  0  0  0  0  0  0  0
   13.4290    0.4530   22.8510 C   0  0  0  0  0  0  0  0  0  0  0  0
   13.9970   -1.7880   22.4570 F   0  0  0  0  0  0  0  0  0  0  0  0
  4  2  2  0
  7  1  1  0
  7  4  1  0
 10  3  2  0
 10  1  1  0
 12 10  1  0
 13 12  1  0
 14 13  1  0
 14  5  2  0
 15  8  2  0
 15  5  1  0
 16  8  1  0
 16 13  2  0
 17  7  2  0
 18 17  1  0
 18  6  1  0
 19 11  1  0
 19  6  1  6
 20 19  1  0
 21 11  1  0
 21 20  1  0
 21  9  2  0
 22 18  2  0
 22  2  1  0
 23  2  1  0
M  END
