
     RDKit          3D

 18 19  0  0  0  0  0  0  0  0999 V2000
   13.2060   -1.0550   22.5360 C   0  0  0  0  0  0  0  0  0  0  0  0
   12.4090   -1.3200   23.7330 N   0  0  0  0  0  0  0  0  0  0  0  0
    7.9380   -2.3250   25.5600 O   0  0  0  0  0  0  0  0  0  0  0  0
   11.6990   -0.1210   24.1690 C   0  0  0  0  0  0  0  0  0  0  0  0
   10.0470   -1.5080   25.3420 N   0  0  0  0  0  0  0  0  0  0  0  0
    7.4270   -0.4890   27.5720 O   0  0  0  0  0  0  0  0  0  0  0  0
   10.9910   -0.3950   25.4730 C   0  0  0  0  0  0  0  0  0  0  0  0
   10.6540   -2.7080   24.7600 C   0  0  0  0  0  0  0  0  0  0  0  0
   11.4280   -2.3820   23.5000 C   0  0  0  0  0  0  0  0  0  0  0  0
    8.7670   -1.4390   25.7680 C   0  0  0  0  0  0  0  0  0  0  0  0
    8.3530   -0.1920   26.5380 C   0  0  0  0  0  0  0  0  0  0  0  0
    6.9960    0.5600   28.3430 C   0  0  0  0  0  0  0  0  0  0  0  0
    7.7410    1.7240   28.4910 C   0  0  0  0  0  0  0  0  0  0  0  0
    7.2630    2.7480   29.2930 C   0  0  0  0  0  0  0  0  0  0  0  0
    6.0510    2.6480   29.9480 C   0  0  0  0  0  0  0  0  0  0  0  0
    5.5420    3.7620   30.8160 C   0  0  0  0  0  0  0  0  0  0  0  0
    5.3230    1.4840   29.7880 C   0  0  0  0  0  0  0  0  0  0  0  0
    5.7800    0.4400   28.9990 C   0  0  0  0  0  0  0  0  0  0  0  0
  2  1  1  0
  4  2  1  0
  7  5  1  0
  7  4  1  0
  8  5  1  0
  9  8  1  0
  9  2  1  0
 10  5  1  0
 10  3  1  0
 11 10  1  0
 11  6  1  0
 12  6  1  0
 13 12  1  0
 14 13  1  0
 15 14  1  0
 16 15  1  0
 17 15  1  0
 18 17  1  0
 18 12  1  0
M  END
$$$$
