
     RDKit          3D

 15 16  0  0  0  0  0  0  0  0999 V2000
   21.8340   21.3970    4.6320 O   0  0  0  0  0  0  0  0  0  0  0  0
   21.9500   20.2100    3.9650 C   0  0  0  0  0  0  0  0  0  0  0  0
   20.7300   19.3630    4.2120 C   0  0  1  0  0  0  0  0  0  0  0  0
   21.1360   17.8700    4.1970 C   0  0  0  0  0  0  0  0  0  0  0  0
   21.4810   17.3290    5.4810 N   0  0  0  0  0  0  0  0  0  0  0  0
   22.3500   16.3740    5.4510 C   0  0  0  0  0  0  0  0  0  0  0  0
   21.8560   15.1340    6.1880 C   0  0  0  0  0  0  0  0  0  0  0  0
   22.4760   13.9350    5.8970 C   0  0  0  0  0  0  0  0  0  0  0  0
   22.0780   12.7740    6.5260 C   0  0  0  0  0  0  0  0  0  0  0  0
   21.0610   12.8000    7.4610 C   0  0  0  0  0  0  0  0  0  0  0  0
   20.4480   13.9790    7.7610 C   0  0  0  0  0  0  0  0  0  0  0  0
   20.8450   15.1530    7.1210 C   0  0  0  0  0  0  0  0  0  0  0  0
   21.7120   18.2690    6.4950 C   0  0  0  0  0  0  0  0  0  0  0  0
   20.5510   19.2720    6.6270 C   0  0  0  0  0  0  0  0  0  0  0  0
   20.0710   19.7900    5.3920 O   0  0  0  0  0  0  0  0  0  0  0  0
  2  1  1  0
  3  2  1  1
  4  3  1  0
  5  4  1  0
  6  5  1  0
  7  6  1  0
  8  7  2  0
  9  8  1  0
 10  9  2  0
 11 10  1  0
 12 11  2  0
 12  7  1  0
 13  5  1  0
 14 13  1  0
 15  3  1  0
 15 14  1  0
M  END
