
     RDKit          3D

 14 15  0  0  0  0  0  0  0  0999 V2000
   14.4950  -25.9400    4.3360 N   0  0  0  0  0  0  0  0  0  0  0  0
   15.9170  -25.6080    7.0630 C   0  0  0  0  0  0  0  0  0  0  0  0
   15.1180  -27.8890    7.8470 O   0  0  0  0  0  0  0  0  0  0  0  0
   16.0620  -27.5880    5.4690 C   0  0  0  0  0  0  0  0  0  0  0  0
   13.7500  -28.1120    4.5170 N   0  0  0  0  0  0  0  0  0  0  0  0
   17.5160  -27.4720    7.5470 O   0  0  0  0  0  0  0  0  0  0  0  0
   14.7880  -27.1960    4.7770 C   0  0  0  0  0  0  0  0  0  0  0  0
   13.2040  -26.0400    3.7800 C   0  0  2  0  0  0  0  0  0  0  0  0
   12.3740  -25.0350    3.2340 C   0  0  0  0  0  0  0  0  0  0  0  0
   11.1100  -25.4060    2.8300 C   0  0  0  0  0  0  0  0  0  0  0  0
   10.6550  -26.7460    2.9400 C   0  0  0  0  0  0  0  0  0  0  0  0
   11.4470  -27.7410    3.4610 C   0  0  0  0  0  0  0  0  0  0  0  0
   12.7340  -27.3770    3.8880 C   0  0  2  0  0  0  0  0  0  0  0  0
   16.1670  -27.2460    7.1530 S   0  0  1  0  0  0  0  0  0  0  0  0
  7  5  1  0
  7  4  1  0
  7  1  1  0
  8  1  1  0
  8  9  1  1
 10  9  1  0
 11 10  1  0
 12 11  1  0
 13 12  1  1
 13  5  1  0
 13  8  1  0
 14  4  1  0
 14  3  1  0
 14  2  1  6
 14  6  1  0
M  END
$$$$
