
     RDKit          3D

 16 17  0  0  0  0  0  0  0  0999 V2000
    9.5850    1.0480   21.1080 O   0  0  0  0  0  0  0  0  0  0  0  0
    9.1510   -0.0100   21.5530 C   0  0  0  0  0  0  0  0  0  0  0  0
    9.8750   -0.7590   22.6450 C   0  0  1  0  0  0  0  0  0  0  0  0
   11.3200   -1.0230   22.1870 C   0  0  0  0  0  0  0  0  0  0  0  0
   12.2770   -1.5910   23.2310 C   0  0  1  0  0  0  0  0  0  0  0  0
   13.6980   -1.8260   22.8550 C   0  0  0  0  0  0  0  0  0  0  0  0
   13.3530   -0.7160   23.7880 C   0  0  0  0  0  0  0  0  0  0  0  0
    9.8290    0.0950   23.9130 C   0  0  0  0  0  0  0  0  0  0  0  0
    8.0180   -0.6040   21.1220 N   0  0  0  0  0  0  0  0  0  0  0  0
    7.1730   -0.0880   20.1130 C   0  0  0  0  0  0  0  0  0  0  0  0
    5.9510    0.5130   20.4640 C   0  0  0  0  0  0  0  0  0  0  0  0
    5.5100    0.6510   21.9000 C   0  0  0  0  0  0  0  0  0  0  0  0
    5.1760    1.0350   19.4360 C   0  0  0  0  0  0  0  0  0  0  0  0
    5.6260    0.9530   18.1330 C   0  0  0  0  0  0  0  0  0  0  0  0
    6.7890    0.3910   17.7870 N   0  0  0  0  0  0  0  0  0  0  0  0
    7.5390   -0.1200   18.7660 C   0  0  0  0  0  0  0  0  0  0  0  0
  2  1  2  0
  3  2  1  0
  4  3  1  0
  5  4  1  6
  6  5  1  0
  7  6  1  0
  7  5  1  0
  3  8  1  1
  9  2  1  0
 10  9  1  0
 11 10  2  0
 12 11  1  0
 13 11  1  0
 14 13  2  0
 15 14  1  0
 16 15  2  0
 16 10  1  0
M  END
