
     RDKit          3D

 17 18  0  0  0  0  0  0  0  0999 V2000
   13.6630   -1.6980   21.4520 Cl  0  0  0  0  0  0  0  0  0  0  0  0
   12.4350   -0.8810   22.3760 C   0  0  0  0  0  0  0  0  0  0  0  0
   12.8100    0.0640   23.3020 C   0  0  0  0  0  0  0  0  0  0  0  0
   11.8320    0.6420   24.0960 C   0  0  0  0  0  0  0  0  0  0  0  0
   10.5000    0.3010   23.9220 C   0  0  0  0  0  0  0  0  0  0  0  0
   11.1120   -1.2300   22.1880 C   0  0  0  0  0  0  0  0  0  0  0  0
   10.1230   -0.6100   22.9470 C   0  0  0  0  0  0  0  0  0  0  0  0
    8.6670   -0.8180   22.6090 C   0  0  0  0  0  0  0  0  0  0  0  0
    8.3060   -0.0510   21.3520 C   0  0  0  0  0  0  0  0  0  0  0  0
    9.0360    0.8210   20.8830 O   0  0  0  0  0  0  0  0  0  0  0  0
    7.1200   -0.4140   20.7810 N   0  0  0  0  0  0  0  0  0  0  0  0
    6.6730    0.1090   19.5510 C   0  0  0  0  0  0  0  0  0  0  0  0
    5.6690    1.0210   19.3270 C   0  0  0  0  0  0  0  0  0  0  0  0
    4.8240    1.8180   20.2680 C   0  0  0  0  0  0  0  0  0  0  0  0
    7.1530   -0.2530   18.2920 C   0  0  0  0  0  0  0  0  0  0  0  0
    6.4840    0.3810   17.3370 N   0  0  0  0  0  0  0  0  0  0  0  0
    5.5710    1.1560   17.9930 N   0  0  0  0  0  0  0  0  0  0  0  0
  2  1  1  0
  3  2  2  0
  4  3  1  0
  5  4  2  0
  6  2  1  0
  7  5  1  0
  7  6  2  0
  8  7  1  0
  9  8  1  0
 10  9  2  0
 11  9  1  0
 12 11  1  0
 13 12  2  0
 14 13  1  0
 15 12  1  0
 16 15  2  0
 17 16  1  0
 17 13  1  0
M  END
