
     RDKit          3D

 14 14  0  0  0  0  0  0  0  0999 V2000
   13.7430   -2.4780   24.3190 C   0  0  0  0  0  0  0  0  0  0  0  0
   13.3830   -0.2440   23.5370 C   0  0  0  0  0  0  0  0  0  0  0  0
   12.6290    1.0810   23.6240 C   0  0  0  0  0  0  0  0  0  0  0  0
   11.4120    1.1530   24.2860 C   0  0  0  0  0  0  0  0  0  0  0  0
   10.7410    2.3660   24.3680 C   0  0  0  0  0  0  0  0  0  0  0  0
   11.2950    3.4990   23.7830 C   0  0  0  0  0  0  0  0  0  0  0  0
   12.5130    3.4240   23.1210 C   0  0  0  0  0  0  0  0  0  0  0  0
   13.1780    2.2150   23.0460 C   0  0  0  0  0  0  0  0  0  0  0  0
    9.0160    5.0730   22.9390 N   0  0  0  0  0  0  0  0  0  0  0  0
   13.2610   -1.1810   24.5730 O   0  0  0  0  0  0  0  0  0  0  0  0
   14.0780   -0.4590   22.6070 O   0  0  0  0  0  0  0  0  0  0  0  0
   11.3170    6.1920   23.4770 O   0  0  0  0  0  0  0  0  0  0  0  0
   10.1520    5.4220   25.2810 O   0  0  0  0  0  0  0  0  0  0  0  0
   10.4380    5.0900   23.8840 S   0  0  2  0  0  0  0  0  0  0  0  0
  3  2  1  0
  4  3  1  0
  5  4  1  0
  6  5  1  0
  7  6  1  0
  8  7  1  0
  8  3  1  0
 10  2  1  0
 10  1  1  0
 11  2  1  0
 14 13  1  0
 14  9  1  6
 14  6  1  0
 14 12  1  0
M  END
$$$$
