
     RDKit          3D

 18 19  0  0  0  0  0  0  0  0999 V2000
   14.3470   -1.5000   21.5190 Cl  0  0  0  0  0  0  0  0  0  0  0  0
   13.0180   -0.7020   22.3000 C   0  0  0  0  0  0  0  0  0  0  0  0
   13.2690    0.3900   23.1100 C   0  0  0  0  0  0  0  0  0  0  0  0
   12.2100    0.9740   23.7880 C   0  0  0  0  0  0  0  0  0  0  0  0
   10.9200    0.4990   23.6170 C   0  0  0  0  0  0  0  0  0  0  0  0
   11.7430   -1.1950   22.1150 C   0  0  0  0  0  0  0  0  0  0  0  0
   10.6810   -0.5570   22.7450 C   0  0  0  0  0  0  0  0  0  0  0  0
    9.3770   -0.8200   22.2740 N   0  0  0  0  0  0  0  0  0  0  0  0
    8.7350   -0.0500   21.3440 C   0  0  0  0  0  0  0  0  0  0  0  0
    9.2010    0.9970   20.9010 O   0  0  0  0  0  0  0  0  0  0  0  0
    7.5410   -0.5720   20.9290 N   0  0  0  0  0  0  0  0  0  0  0  0
    6.7550   -0.0210   19.8950 C   0  0  0  0  0  0  0  0  0  0  0  0
    7.2160   -0.0810   18.5820 C   0  0  0  0  0  0  0  0  0  0  0  0
    6.6190    0.5340   17.5590 N   0  0  0  0  0  0  0  0  0  0  0  0
    5.5060    1.2230   17.8120 C   0  0  0  0  0  0  0  0  0  0  0  0
    5.5950    0.7040   20.1410 C   0  0  0  0  0  0  0  0  0  0  0  0
    4.9440    1.3510   19.0910 C   0  0  0  0  0  0  0  0  0  0  0  0
    3.8130    2.0940   19.3190 N   0  0  0  0  0  0  0  0  0  0  0  0
  2  1  1  0
  3  2  2  0
  4  3  1  0
  5  4  2  0
  6  2  1  0
  7  6  2  0
  7  5  1  0
  8  7  1  0
  9  8  1  0
 10  9  2  0
 11  9  1  0
 12 11  1  0
 13 12  2  0
 14 13  1  0
 15 14  2  0
 16 12  1  0
 17 16  2  0
 17 15  1  0
 18 17  1  0
M  END
