
     RDKit          3D

 21 23  0  0  0  0  0  0  0  0999 V2000
    8.9120    0.8090   21.0390 O   0  0  0  0  0  0  0  0  0  0  0  0
    8.3560   -0.2410   21.3570 C   0  0  0  0  0  0  0  0  0  0  0  0
    8.8570   -1.0950   22.5050 C   0  0  0  0  0  0  0  0  0  0  0  0
   10.3120   -0.8020   22.7950 C   0  0  0  0  0  0  0  0  0  0  0  0
   10.6770    0.1510   23.7350 C   0  0  0  0  0  0  0  0  0  0  0  0
   12.0080    0.4960   23.9160 C   0  0  0  0  0  0  0  0  0  0  0  0
   12.9970   -0.1080   23.1540 C   0  0  0  0  0  0  0  0  0  0  0  0
   11.3080   -1.4360   22.0600 C   0  0  0  0  0  0  0  0  0  0  0  0
   12.6270   -1.0760   22.2400 C   0  0  0  0  0  0  0  0  0  0  0  0
   13.8520   -1.8540   21.2670 Cl  0  0  0  0  0  0  0  0  0  0  0  0
    7.2490   -0.7000   20.7500 N   0  0  0  0  0  0  0  0  0  0  0  0
    6.5450   -0.0820   19.6950 C   0  0  0  0  0  0  0  0  0  0  0  0
    5.3790    0.6810   20.0120 C   0  0  0  0  0  0  0  0  0  0  0  0
    4.8510    0.8160   21.3150 C   0  0  0  0  0  0  0  0  0  0  0  0
    3.7360    1.5750   21.5180 C   0  0  0  0  0  0  0  0  0  0  0  0
    3.1420    2.2020   20.4260 C   0  0  0  0  0  0  0  0  0  0  0  0
    3.5900    2.1230   19.1820 N   0  0  0  0  0  0  0  0  0  0  0  0
    4.7180    1.3640   18.9640 C   0  0  0  0  0  0  0  0  0  0  0  0
    5.3080    1.2240   17.6660 C   0  0  0  0  0  0  0  0  0  0  0  0
    6.3910    0.5240   17.3730 N   0  0  0  0  0  0  0  0  0  0  0  0
    6.9910   -0.1180   18.3790 C   0  0  0  0  0  0  0  0  0  0  0  0
  2  1  2  0
  3  2  1  0
  4  3  1  0
  5  4  2  0
  6  5  1  0
  7  6  2  0
  8  4  1  0
  9  8  2  0
  9  7  1  0
 10  9  1  0
 11  2  1  0
 12 11  1  0
 13 12  1  0
 14 13  2  0
 15 14  1  0
 16 15  2  0
 17 16  1  0
 18 17  2  0
 18 13  1  0
 19 18  1  0
 20 19  2  0
 21 20  1  0
 21 12  2  0
M  END
