
     RDKit          3D

 26 29  0  0  0  0  0  0  0  0999 V2000
    9.7550    0.5940   20.8700 O   0  0  0  0  0  0  0  0  0  0  0  0
    8.9550   -0.0590   21.5260 C   0  0  1  0  0  0  0  0  0  0  0  0
    9.3950   -0.8370   22.7750 C   0  0  1  0  0  0  0  0  0  0  0  0
   10.8760   -0.5090   22.8320 C   0  0  1  0  0  0  0  0  0  0  0  0
   11.7470   -1.1460   21.9550 C   0  0  0  0  0  0  0  0  0  0  0  0
   13.0720   -0.7750   21.9320 C   0  0  0  0  0  0  0  0  0  0  0  0
   14.1600   -1.6410   20.8910 Cl  0  0  0  0  0  0  0  0  0  0  0  0
   13.5650    0.2270   22.7410 C   0  0  0  0  0  0  0  0  0  0  0  0
   12.7110    0.8710   23.6190 C   0  0  0  0  0  0  0  0  0  0  0  0
   11.3820    0.4870   23.6710 C   0  0  2  0  0  0  0  0  0  0  0  0
   10.6240    1.0990   24.6420 O   0  0  0  0  0  0  0  0  0  0  0  0
    9.2020    1.0950   24.4070 C   0  0  0  0  0  0  0  0  0  0  0  0
    8.6880   -0.2800   24.0350 C   0  0  0  0  0  0  0  0  0  0  0  0
    9.1710   -2.3600   22.6920 C   0  0  0  0  0  0  0  0  0  0  0  0
    7.7550   -2.7250   22.6750 N   0  0  0  0  0  0  0  0  0  0  0  0
    7.6440    0.0730   21.3240 N   0  0  0  0  0  0  0  0  0  0  0  0
    6.9160    0.3080   20.1480 C   0  0  0  0  0  0  0  0  0  0  0  0
    5.5770    0.7520   20.3220 C   0  0  1  0  0  0  0  0  0  0  0  0
    4.9660    0.9150   21.5930 C   0  0  0  0  0  0  0  0  0  0  0  0
    3.7380    1.4970   21.7120 C   0  0  0  0  0  0  0  0  0  0  0  0
    3.0700    1.9660   20.5930 C   0  0  0  0  0  0  0  0  0  0  0  0
    3.6140    1.8250   19.3480 C   0  0  0  0  0  0  0  0  0  0  0  0
    4.8650    1.1870   19.1740 C   0  0  1  0  0  0  0  0  0  0  0  0
    5.4910    1.0190   17.9100 C   0  0  0  0  0  0  0  0  0  0  0  0
    6.7070    0.5040   17.7400 N   0  0  0  0  0  0  0  0  0  0  0  0
    7.3980    0.1800   18.8410 C   0  0  0  0  0  0  0  0  0  0  0  0
  2  1  1  1
  3  2  1  0
  4  3  1  0
  4  5  1  6
  6  5  1  0
  7  6  1  0
  8  6  1  0
  9  8  1  0
 10  4  1  0
 10  9  1  1
 11 10  1  0
 12 11  1  0
 13 12  1  0
 13  3  1  0
  3 14  1  6
 15 14  1  0
 16  2  1  0
 17 16  1  0
 18 17  1  0
 18 19  1  1
 20 19  1  0
 21 20  1  0
 22 21  1  0
 23 22  1  1
 23 18  1  0
 24 23  1  0
 25 24  1  0
 26 25  1  0
 26 17  1  0
M  END
