
     RDKit          3D

 24 27  0  0  0  0  0  0  0  0999 V2000
   13.9400   -1.8090   20.9230 Cl  0  0  0  0  0  0  0  0  0  0  0  0
   12.9630   -0.9010   22.0390 C   0  0  0  0  0  0  0  0  0  0  0  0
   13.5780   -0.0540   22.9340 C   0  0  0  0  0  0  0  0  0  0  0  0
   12.8020    0.6500   23.8360 C   0  0  0  0  0  0  0  0  0  0  0  0
   11.5930   -1.0560   22.0040 C   0  0  0  0  0  0  0  0  0  0  0  0
   10.7940   -0.3390   22.8910 C   0  0  0  0  0  0  0  0  0  0  0  0
   11.4230    0.5080   23.8060 C   0  0  0  0  0  0  0  0  0  0  0  0
   10.7180    1.2570   24.7140 O   0  0  0  0  0  0  0  0  0  0  0  0
    9.5310    0.6070   25.1800 C   0  0  0  0  0  0  0  0  0  0  0  0
    8.5720    0.2930   24.0560 C   0  0  0  0  0  0  0  0  0  0  0  0
    9.2810   -0.4410   22.8730 C   0  0  1  0  0  0  0  0  0  0  0  0
    8.7990    0.1780   21.5600 C   0  0  0  0  0  0  0  0  0  0  0  0
    9.3510    1.1510   21.0570 O   0  0  0  0  0  0  0  0  0  0  0  0
    7.6890   -0.3920   21.0360 N   0  0  0  0  0  0  0  0  0  0  0  0
    6.9400    0.1400   19.9510 C   0  0  0  0  0  0  0  0  0  0  0  0
    7.3760   -0.0290   18.6390 C   0  0  0  0  0  0  0  0  0  0  0  0
    6.7350    0.4600   17.5750 N   0  0  0  0  0  0  0  0  0  0  0  0
    5.5970    1.1270   17.7860 C   0  0  0  0  0  0  0  0  0  0  0  0
    5.7540    0.8590   20.1700 C   0  0  0  0  0  0  0  0  0  0  0  0
    5.0110    1.2780   21.2660 N   0  0  0  0  0  0  0  0  0  0  0  0
    5.3070    1.0880   22.6810 C   0  0  0  0  0  0  0  0  0  0  0  0
    5.0560    1.3370   19.0510 C   0  0  0  0  0  0  0  0  0  0  0  0
    3.8950    1.9890   19.4550 N   0  0  0  0  0  0  0  0  0  0  0  0
    3.9290    1.9260   20.7610 C   0  0  0  0  0  0  0  0  0  0  0  0
  2  1  1  0
  3  2  2  0
  4  3  1  0
  5  2  1  0
  6  5  2  0
  7  6  1  0
  7  4  2  0
  8  7  1  0
  9  8  1  0
 10  9  1  0
 11 10  1  0
 11  6  1  0
 11 12  1  6
 13 12  2  0
 14 12  1  0
 15 14  1  0
 16 15  2  0
 17 16  1  0
 18 17  2  0
 19 15  1  0
 20 19  1  0
 21 20  1  0
 22 19  2  0
 22 18  1  0
 23 22  1  0
 24 23  2  0
 24 20  1  0
M  END
