
     RDKit          3D

 21 22  0  0  0  0  0  0  0  0999 V2000
    7.0290   -3.4310   21.1230 N   0  0  0  0  0  0  0  0  0  0  0  0
    6.9360   -2.8610   18.7470 C   0  0  0  0  0  0  0  0  0  0  0  0
    5.6850   -4.5950   19.7230 O   0  0  0  0  0  0  0  0  0  0  0  0
    6.4940   -3.6980   19.9100 C   0  0  0  0  0  0  0  0  0  0  0  0
    7.1130   -2.4060   23.7080 N   0  0  0  0  0  0  0  0  0  0  0  0
    8.1480   -0.8070   25.2890 O   0  0  0  0  0  0  0  0  0  0  0  0
    7.9390   -2.3280   21.4620 C   0  0  0  0  0  0  0  0  0  0  0  0
   10.5410   -2.6520   23.9800 N   0  0  0  0  0  0  0  0  0  0  0  0
    5.8590   -1.6520   25.7070 O   0  0  0  0  0  0  0  0  0  0  0  0
    7.3790   -1.4950   22.5880 C   0  0  0  0  0  0  0  0  0  0  0  0
    6.1050   -3.4210   23.3670 C   0  0  0  0  0  0  0  0  0  0  0  0
    6.6960   -4.2720   22.2760 C   0  0  0  0  0  0  0  0  0  0  0  0
    7.8700   -3.2440   26.1540 C   0  0  0  0  0  0  0  0  0  0  0  0
    7.1310   -3.8390   27.1730 C   0  0  0  0  0  0  0  0  0  0  0  0
    7.6450   -4.9200   27.8630 C   0  0  0  0  0  0  0  0  0  0  0  0
    8.8800   -5.4340   27.5420 C   0  0  0  0  0  0  0  0  0  0  0  0
    9.6250   -4.8770   26.5200 C   0  0  0  0  0  0  0  0  0  0  0  0
    9.1210   -3.7910   25.8140 C   0  0  0  0  0  0  0  0  0  0  0  0
    9.9110   -3.2120   24.7590 C   0  0  0  0  0  0  0  0  0  0  0  0
    7.1970   -1.8730   25.2560 S   0  0  0  0  0  0  0  0  0  0  0  0
    8.6310   -3.3650   18.3810 S   0  0  0  0  0  0  0  0  0  0  0  0
  4  3  2  0
  4  2  1  0
  4  1  1  0
  7  1  1  0
 10  7  1  0
 10  5  1  0
 11  5  1  0
 12  1  1  0
 12 11  1  0
 14 13  2  0
 15 14  1  0
 16 15  2  0
 17 16  1  0
 18 17  2  0
 18 13  1  0
 19 18  1  0
 19  8  3  0
 20 13  1  0
 20  9  2  0
 20  6  2  0
 20  5  1  0
  2 21  1  0
M  END
