
     RDKit          3D

 20 22  0  0  0  0  0  0  0  0999 V2000
    9.0350    0.8820   21.0560 O   0  0  0  0  0  0  0  0  0  0  0  0
    8.4790   -0.1550   21.3970 C   0  0  0  0  0  0  0  0  0  0  0  0
    8.9680   -0.9700   22.5780 C   0  0  0  0  0  0  0  0  0  0  0  0
   10.4380   -0.7280   22.8220 C   0  0  0  0  0  0  0  0  0  0  0  0
   10.8620    0.1390   23.8190 C   0  0  0  0  0  0  0  0  0  0  0  0
   12.2020    0.4660   23.9540 C   0  0  0  0  0  0  0  0  0  0  0  0
   13.1470   -0.0930   23.1060 C   0  0  0  0  0  0  0  0  0  0  0  0
   11.3890   -1.3070   21.9880 C   0  0  0  0  0  0  0  0  0  0  0  0
   12.7240   -0.9940   22.1520 C   0  0  0  0  0  0  0  0  0  0  0  0
   13.9110   -1.8270   21.1850 Cl  0  0  0  0  0  0  0  0  0  0  0  0
    7.3930   -0.6500   20.7760 N   0  0  0  0  0  0  0  0  0  0  0  0
    6.7070   -0.0060   19.7230 C   0  0  0  0  0  0  0  0  0  0  0  0
    5.5860    0.7730   20.0400 C   0  0  0  0  0  0  0  0  0  0  0  0
    5.0230    1.1280   21.3890 C   0  0  0  0  0  0  0  0  0  0  0  0
    3.6840    1.7920   21.0580 C   0  0  0  0  0  0  0  0  0  0  0  0
    3.7220    2.1840   19.5780 C   0  0  0  0  0  0  0  0  0  0  0  0
    4.8730    1.3910   19.0160 C   0  0  0  0  0  0  0  0  0  0  0  0
    5.3290    1.2070   17.7290 C   0  0  0  0  0  0  0  0  0  0  0  0
    6.4070    0.4860   17.3990 N   0  0  0  0  0  0  0  0  0  0  0  0
    7.0770   -0.1120   18.3870 C   0  0  0  0  0  0  0  0  0  0  0  0
  2  1  2  0
  3  2  1  0
  4  3  1  0
  5  4  2  0
  6  5  1  0
  7  6  2  0
  8  4  1  0
  9  8  2  0
  9  7  1  0
 10  9  1  0
 11  2  1  0
 12 11  1  0
 13 12  2  0
 14 13  1  0
 15 14  1  0
 16 15  1  0
 17 16  1  0
 17 13  1  0
 18 17  2  0
 19 18  1  0
 20 19  2  0
 20 12  1  0
M  END
