
     RDKit          3D

 10 10  0  0  0  0  0  0  0  0999 V2000
   22.9560  -20.3510   23.2600 N   0  0  0  0  0  0  0  0  0  0  0  0
   23.9150  -18.1370   23.9680 C   0  0  0  0  0  0  0  0  0  0  0  0
   23.0350  -18.8760   22.9500 C   0  0  0  0  0  0  0  0  0  0  0  0
   21.7090  -20.6840   24.0230 C   0  0  0  0  0  0  0  0  0  0  0  0
   21.2880  -22.0960   23.8330 C   0  0  0  0  0  0  0  0  0  0  0  0
   21.3220  -23.1910   24.7040 C   0  0  0  0  0  0  0  0  0  0  0  0
   20.4920  -25.6180   24.4200 C   0  0  0  0  0  0  0  0  0  0  0  0
   20.7110  -24.2260   23.9870 N   0  0  0  0  0  0  0  0  0  0  0  0
   20.3410  -23.7540   22.7570 N   0  0  0  0  0  0  0  0  0  0  0  0
   20.6790  -22.5250   22.6590 N   0  0  0  0  0  0  0  0  0  0  0  0
  3  2  1  0
  3  1  1  0
  4  1  1  0
  5  4  1  0
  6  5  2  0
  8  7  1  0
  8  6  1  0
  9  8  1  0
 10  9  2  0
 10  5  1  0
M  END
