
     RDKit          3D

 30 33  0  0  0  0  0  0  0  0999 V2000
    9.3310    1.6080   20.5550 O   0  0  0  0  0  0  0  0  0  0  0  0
    8.9210    0.6220   21.2220 C   0  0  0  0  0  0  0  0  0  0  0  0
    9.4290    0.3620   22.4960 N   0  0  0  0  0  0  0  0  0  0  0  0
    8.9920   -0.7670   23.2820 C   0  0  0  0  0  0  0  0  0  0  0  0
    8.0410   -0.6080   24.2750 C   0  0  0  0  0  0  0  0  0  0  0  0
    7.5640   -1.6590   25.1020 C   0  0  0  0  0  0  0  0  0  0  0  0
    8.0130   -2.9850   24.9410 C   0  0  2  0  0  0  0  0  0  0  0  0
    7.6010   -4.0740   25.7650 N   0  0  0  0  0  0  0  0  0  0  0  0
    6.4940   -4.2040   26.5860 C   0  0  0  0  0  0  0  0  0  0  0  0
    6.2020   -5.4180   27.4670 C   0  0  0  0  0  0  0  0  0  0  0  0
    7.0960   -5.6030   28.6910 C   0  0  0  0  0  0  0  0  0  0  0  0
    5.6620   -3.2860   26.6590 O   0  0  0  0  0  0  0  0  0  0  0  0
    8.9610   -3.1520   23.9460 C   0  0  0  0  0  0  0  0  0  0  0  0
    9.4350   -2.0880   23.1360 C   0  0  0  0  0  0  0  0  0  0  0  0
   10.4720    1.0960   23.0740 C   0  0  0  0  0  0  0  0  0  0  0  0
   11.5650    0.2170   23.5820 C   0  0  2  0  0  0  0  0  0  0  0  0
   12.4690   -0.2420   22.7390 C   0  0  0  0  0  0  0  0  0  0  0  0
   13.5980   -1.2770   23.4780 S   0  0  0  0  0  0  0  0  0  0  0  0
   12.8520   -1.1700   24.9780 C   0  0  0  0  0  0  0  0  0  0  0  0
   11.7850   -0.3510   24.8810 C   0  0  0  0  0  0  0  0  0  0  0  0
    7.8390   -0.2520   20.5210 C   0  0  0  0  0  0  0  0  0  0  0  0
    7.0670    0.2170   19.4690 N   0  0  0  0  0  0  0  0  0  0  0  0
    7.4070   -0.0220   18.1500 N   0  0  0  0  0  0  0  0  0  0  0  0
    6.5790    0.5220   17.3700 N   0  0  0  0  0  0  0  0  0  0  0  0
    5.5630    1.2140   18.1340 C   0  0  0  0  0  0  0  0  0  0  0  0
    5.8940    1.0100   19.4750 C   0  0  0  0  0  0  0  0  0  0  0  0
    5.0980    1.5710   20.4940 C   0  0  0  0  0  0  0  0  0  0  0  0
    3.9720    2.3090   20.1590 C   0  0  0  0  0  0  0  0  0  0  0  0
    3.6380    2.5070   18.7920 C   0  0  0  0  0  0  0  0  0  0  0  0
    4.4400    1.9580   17.7810 C   0  0  0  0  0  0  0  0  0  0  0  0
  2  1  1  0
  3  2  1  0
  4  3  1  0
  5  4  1  0
  6  5  1  0
  7  6  1  0
  7  8  1  1
  9  8  1  0
 10  9  1  0
 11 10  1  0
 12  9  1  0
 13  7  1  0
 14 13  1  0
 14  4  1  0
 15  3  1  0
 16 15  1  6
 17 16  1  0
 18 17  1  0
 19 18  1  0
 20 19  1  0
 20 16  1  0
 21  2  1  0
 22 21  1  0
 23 22  1  0
 24 23  1  0
 25 24  1  0
 26 25  1  0
 26 22  1  0
 27 26  1  0
 28 27  1  0
 29 28  1  0
 30 29  1  0
 30 25  1  0
M  END
