
     RDKit          3D

 18 20  0  0  0  0  0  0  0  0999 V2000
   22.7070   17.8110    2.8850 O   0  0  0  0  0  0  0  0  0  0  0  0
   22.0180   18.3120    3.9940 C   0  0  0  0  0  0  0  0  0  0  0  0
   21.1500   19.3870    3.8590 C   0  0  0  0  0  0  0  0  0  0  0  0
   20.4830   19.8680    4.9740 C   0  0  0  0  0  0  0  0  0  0  0  0
   20.6630   19.2750    6.2190 C   0  0  0  0  0  0  0  0  0  0  0  0
   21.5280   18.1950    6.3540 C   0  0  0  0  0  0  0  0  0  0  0  0
   22.1990   17.7170    5.2340 C   0  0  0  0  0  0  0  0  0  0  0  0
   23.1610   16.5440    5.3350 C   0  0  0  0  0  0  0  0  0  0  0  0
   22.7380   15.4550    4.4750 N   0  0  0  0  0  0  0  0  0  0  0  0
   23.6450   14.3400    4.2660 C   0  0  0  0  0  0  0  0  0  0  0  0
   24.7840   14.1620    4.9340 N   0  0  0  0  0  0  0  0  0  0  0  0
   25.3820   13.0230    4.4870 C   0  0  0  0  0  0  0  0  0  0  0  0
   26.5990   12.3610    4.8400 C   0  0  0  0  0  0  0  0  0  0  0  0
   26.9560   11.1780    4.1960 C   0  0  0  0  0  0  0  0  0  0  0  0
   26.1310   10.6430    3.2020 C   0  0  0  0  0  0  0  0  0  0  0  0
   24.9490   11.2920    2.8580 C   0  0  0  0  0  0  0  0  0  0  0  0
   24.5760   12.4970    3.5210 C   0  0  0  0  0  0  0  0  0  0  0  0
   23.5100   13.3310    3.4060 N   0  0  0  0  0  0  0  0  0  0  0  0
  2  1  1  0
  3  2  1  0
  4  3  1  0
  5  4  1  0
  6  5  1  0
  7  6  1  0
  7  2  1  0
  8  7  1  0
  9  8  1  0
 10  9  1  0
 11 10  1  0
 12 11  1  0
 13 12  1  0
 14 13  1  0
 15 14  1  0
 16 15  1  0
 17 16  1  0
 17 12  1  0
 18 17  1  0
 18 10  1  0
M  END
$$$$
