
     RDKit          3D

 43 46  0  0  0  0  0  0  0  0999 V2000
    6.3130   -5.3310   22.2560 C   0  0  0  0  0  0  0  0  0  0  0  0
    5.0670   -4.9470   23.0340 C   0  0  0  0  0  0  0  0  0  0  0  0
    5.0030   -3.6990   23.6930 C   0  0  0  0  0  0  0  0  0  0  0  0
   10.4230    0.9540   23.2490 N   0  0  0  0  0  0  0  0  0  0  0  0
   10.6710    0.9330   24.5680 C   0  0  0  0  0  0  0  0  0  0  0  0
   10.5160    2.0630   25.3290 C   0  0  0  0  0  0  0  0  0  0  0  0
   10.0860    3.2510   24.7520 C   0  0  0  0  0  0  0  0  0  0  0  0
    9.8060    3.3100   23.3820 C   0  0  0  0  0  0  0  0  0  0  0  0
   10.4820   -0.2180   22.4040 C   0  0  1  0  0  0  0  0  0  0  0  0
    9.9580    2.0880   22.5550 C   0  0  0  0  0  0  0  0  0  0  0  0
   11.3150   -1.3760   22.9650 C   0  0  0  0  0  0  0  0  0  0  0  0
    9.6850    2.0780   21.2920 O   0  0  0  0  0  0  0  0  0  0  0  0
    3.8860   -3.3580   24.4520 C   0  0  0  0  0  0  0  0  0  0  0  0
    9.3690    4.3920   22.7150 N   0  0  0  0  0  0  0  0  0  0  0  0
    9.1570    5.5660   23.2490 C   0  0  0  0  0  0  0  0  0  0  0  0
    2.8260   -4.2510   24.5730 C   0  0  0  0  0  0  0  0  0  0  0  0
    8.6790    6.5700   22.3300 O   0  0  0  0  0  0  0  0  0  0  0  0
    2.8960   -5.4940   23.9120 C   0  0  0  0  0  0  0  0  0  0  0  0
    9.3370    5.8250   24.4310 O   0  0  0  0  0  0  0  0  0  0  0  0
    7.6720    7.4500   22.7860 C   0  0  2  0  0  0  0  0  0  0  0  0
    4.0120   -5.8430   23.1440 C   0  0  0  0  0  0  0  0  0  0  0  0
   12.7530   -0.9760   23.3010 C   0  0  1  0  0  0  0  0  0  0  0  0
   13.8770   -1.9000   22.8270 C   0  0  0  0  0  0  0  0  0  0  0  0
    6.6890    6.7240   23.7180 C   0  0  0  0  0  0  0  0  0  0  0  0
    6.8590    7.9400   21.5990 C   0  0  0  0  0  0  0  0  0  0  0  0
    8.4400    8.5900   23.4610 C   0  0  0  0  0  0  0  0  0  0  0  0
   13.6710   -0.5380   22.1610 C   0  0  0  0  0  0  0  0  0  0  0  0
    6.5530   -3.9700   20.1760 C   0  0  0  0  0  0  0  0  0  0  0  0
    9.0370   -0.6400   22.1590 C   0  0  0  0  0  0  0  0  0  0  0  0
    6.1250   -4.8240   20.9620 N   0  0  0  0  0  0  0  0  0  0  0  0
    8.1050   -0.5010   22.9990 O   0  0  0  0  0  0  0  0  0  0  0  0
    8.8180   -1.1540   20.9660 N   0  0  0  0  0  0  0  0  0  0  0  0
    7.4800   -1.6900   20.5960 C   0  0  1  0  0  0  0  0  0  0  0  0
    8.5010   -3.8510   21.5050 O   0  0  0  0  0  0  0  0  0  0  0  0
    5.9740   -3.8870   19.1190 O   0  0  0  0  0  0  0  0  0  0  0  0
    6.9360   -1.0250   19.3170 C   0  0  0  0  0  0  0  0  0  0  0  0
    6.4680    0.4340   19.5190 C   0  0  1  0  0  0  0  0  0  0  0  0
    6.0090    1.0960   18.2060 C   0  0  0  0  0  0  0  0  0  0  0  0
    6.6380    1.0540   17.1200 O   0  0  0  0  0  0  0  0  0  0  0  0
    4.8510    1.7260   18.4330 N   0  0  0  0  0  0  0  0  0  0  0  0
    4.2650    1.4880   19.7580 C   0  0  0  0  0  0  0  0  0  0  0  0
    5.2900    0.5770   20.4770 C   0  0  0  0  0  0  0  0  0  0  0  0
    7.7830   -3.1890   20.4200 C   0  0  1  0  0  0  0  0  0  0  0  0
  2  1  1  0
  3  2  2  0
  5  4  1  0
  6  5  2  0
  7  6  1  0
  8  7  2  0
  9  4  1  0
 10  8  1  0
 10  4  1  0
  9 11  1  1
 12 10  2  0
 13  3  1  0
 14  8  1  0
 15 14  1  0
 16 13  2  0
 17 15  1  0
 18 16  1  0
 19 15  2  0
 20 17  1  0
 21 18  2  0
 21  2  1  0
 22 11  1  6
 23 22  1  0
 20 24  1  1
 25 20  1  0
 26 20  1  0
 27 23  1  0
 27 22  1  0
 29  9  1  0
 30 28  1  0
 30  1  1  0
 31 29  2  0
 32 29  1  0
 33 32  1  0
 35 28  2  0
 33 36  1  6
 37 36  1  6
 38 37  1  0
 39 38  2  0
 40 38  1  0
 41 40  1  0
 42 41  1  0
 42 37  1  0
 43 34  1  1
 43 33  1  0
 43 28  1  0
M  END
$$$$
