
     RDKit          3D

 20 22  0  0  0  0  0  0  0  0999 V2000
    9.8100    1.1460   21.2210 O   0  0  0  0  0  0  0  0  0  0  0  0
    9.5230    0.0530   21.6910 C   0  0  0  0  0  0  0  0  0  0  0  0
    8.4110   -0.6330   21.3370 N   0  0  0  0  0  0  0  0  0  0  0  0
    7.5100   -0.2020   20.3250 C   0  0  0  0  0  0  0  0  0  0  0  0
    7.8770   -0.1450   18.9770 C   0  0  0  0  0  0  0  0  0  0  0  0
    7.0650    0.2920   18.0050 N   0  0  0  0  0  0  0  0  0  0  0  0
    5.8340    0.6740   18.3580 C   0  0  0  0  0  0  0  0  0  0  0  0
    5.3780    0.6650   19.6620 C   0  0  0  0  0  0  0  0  0  0  0  0
    6.2170    0.2250   20.6830 C   0  0  0  0  0  0  0  0  0  0  0  0
    5.7560    0.2470   22.1170 C   0  0  0  0  0  0  0  0  0  0  0  0
   10.4380   -0.6360   22.6860 C   0  0  0  0  0  0  0  0  0  0  0  0
    9.8200   -1.6950   23.5710 C   0  0  0  0  0  0  0  0  0  0  0  0
   10.2310   -3.0210   23.4530 C   0  0  0  0  0  0  0  0  0  0  0  0
    9.8070   -3.9620   24.3900 C   0  0  0  0  0  0  0  0  0  0  0  0
   10.0930   -5.3220   24.5300 N   0  0  0  0  0  0  0  0  0  0  0  0
    9.4530   -5.6830   25.6250 C   0  0  0  0  0  0  0  0  0  0  0  0
    8.7670   -4.6740   26.2120 N   0  0  0  0  0  0  0  0  0  0  0  0
    8.9730   -3.5630   25.4340 C   0  0  0  0  0  0  0  0  0  0  0  0
    8.5220   -2.2560   25.5480 C   0  0  0  0  0  0  0  0  0  0  0  0
    8.9460   -1.3390   24.5990 C   0  0  0  0  0  0  0  0  0  0  0  0
  2  1  2  0
  3  2  1  0
  4  3  1  0
  5  4  2  0
  6  5  1  0
  7  6  2  0
  8  7  1  0
  9  8  2  0
  9  4  1  0
 10  9  1  0
 11  2  1  0
 12 11  1  0
 13 12  2  0
 14 13  1  0
 15 14  1  0
 16 15  2  0
 17 16  1  0
 18 17  1  0
 18 14  2  0
 19 18  1  0
 20 19  2  0
 20 12  1  0
M  END
