
     RDKit          3D

 36 40  0  0  0  0  0  0  0  0999 V2000
    8.3690   -0.3000   21.1890 C   0  0  0  0  0  0  0  0  0  0  0  0
    8.6530   -2.2550   22.5050 C   0  0  0  0  0  0  0  0  0  0  0  0
    9.1640   -1.0230   22.0860 C   0  0  0  0  0  0  0  0  0  0  0  0
   10.5070   -0.5130   22.6110 C   0  0  0  0  0  0  0  0  0  0  0  0
   11.5590   -1.4250   22.8020 C   0  0  0  0  0  0  0  0  0  0  0  0
    6.3580   -0.0140   19.7560 C   0  0  0  0  0  0  0  0  0  0  0  0
   12.7970   -0.9850   23.2940 C   0  0  0  0  0  0  0  0  0  0  0  0
   12.9790    0.3710   23.5870 C   0  0  0  0  0  0  0  0  0  0  0  0
   11.9360    1.2830   23.3930 C   0  0  0  0  0  0  0  0  0  0  0  0
   11.2430    3.5980   23.2230 C   0  0  0  0  0  0  0  0  0  0  0  0
   11.9070    4.9000   23.6450 C   0  0  0  0  0  0  0  0  0  0  0  0
   10.7030    0.8390   22.9030 C   0  0  0  0  0  0  0  0  0  0  0  0
    6.7960    0.0030   18.4260 C   0  0  0  0  0  0  0  0  0  0  0  0
    4.8820    1.3400   17.8360 C   0  0  0  0  0  0  0  0  0  0  0  0
    4.4480    1.3190   19.1680 C   0  0  0  0  0  0  0  0  0  0  0  0
    5.1850    0.6320   20.1390 C   0  0  0  0  0  0  0  0  0  0  0  0
    6.6390   -1.9820   21.1100 C   0  0  0  0  0  0  0  0  0  0  0  0
    7.4200   -2.7230   22.0060 C   0  0  0  0  0  0  0  0  0  0  0  0
    6.8910   -4.0710   22.5000 C   0  0  0  0  0  0  0  0  0  0  0  0
    7.1530   -4.3790   23.8410 C   0  0  0  0  0  0  0  0  0  0  0  0
    6.1550   -4.9850   21.7160 C   0  0  0  0  0  0  0  0  0  0  0  0
    5.9920   -6.4620   23.6120 C   0  0  0  0  0  0  0  0  0  0  0  0
   13.1080    5.2930   23.0400 C   0  0  0  0  0  0  0  0  0  0  0  0
   13.7450    6.4790   23.4320 C   0  0  0  0  0  0  0  0  0  0  0  0
   13.1970    7.2650   24.4490 C   0  0  0  0  0  0  0  0  0  0  0  0
   12.0070    6.8690   25.0700 C   0  0  0  0  0  0  0  0  0  0  0  0
   11.3700    5.6930   24.6580 C   0  0  0  0  0  0  0  0  0  0  0  0
    7.1530   -0.7520   20.7130 N   0  0  0  0  0  0  0  0  0  0  0  0
    6.0540    0.6850   17.4530 N   0  0  0  0  0  0  0  0  0  0  0  0
    5.7240   -6.1690   22.2850 N   0  0  0  0  0  0  0  0  0  0  0  0
    6.7090   -5.5700   24.4000 N   0  0  0  0  0  0  0  0  0  0  0  0
    8.8450    0.9230   20.7710 O   0  0  0  0  0  0  0  0  0  0  0  0
   12.1530    2.6340   23.6890 O   0  0  0  0  0  0  0  0  0  0  0  0
    5.8480   -4.7830   20.4680 O   0  0  0  0  0  0  0  0  0  0  0  0
    5.5640   -7.5780   24.1200 O   0  0  0  0  0  0  0  0  0  0  0  0
   14.1340   -2.1400   23.5770 Cl  0  0  0  0  0  0  0  0  0  0  0  0
  3  1  1  0
  3  2  1  0
  4  3  1  0
  5  4  1  0
  7  5  1  0
  8  7  1  0
  9  8  1  0
 11 10  1  0
 12  4  1  0
 12  9  1  0
 13  6  1  0
 15 14  1  0
 16 15  1  0
 16  6  1  0
 18 17  1  0
 18  2  1  0
 19 18  1  0
 20 19  1  0
 21 19  1  0
 23 11  1  0
 24 23  1  0
 25 24  1  0
 26 25  1  0
 27 11  1  0
 27 26  1  0
 28 17  1  0
 28  6  1  0
 28  1  1  0
 29 14  1  0
 29 13  1  0
 30 22  1  0
 30 21  1  0
 31 22  1  0
 31 20  1  0
 32  1  1  0
 33 10  1  0
 33  9  1  0
 34 21  1  0
 35 22  1  0
 36  7  1  0
M  END
$$$$
