
     RDKit          3D

 25 28  0  0  0  0  0  0  0  0999 V2000
   10.6280    1.2220   24.7140 O   0  0  0  0  0  0  0  0  0  0  0  0
    5.2120    1.0950   21.5000 C   0  0  0  0  0  0  0  0  0  0  0  0
    9.3400   -0.6350   22.8030 C   0  0  1  0  0  0  0  0  0  0  0  0
    4.1280    1.9040   21.6770 C   0  0  0  0  0  0  0  0  0  0  0  0
    3.4750    2.4560   20.5890 C   0  0  0  0  0  0  0  0  0  0  0  0
    3.8930    2.1870   19.3200 C   0  0  0  0  0  0  0  0  0  0  0  0
   14.1070   -1.5410   20.9120 Cl  0  0  0  0  0  0  0  0  0  0  0  0
    5.0120    1.3520   19.0890 C   0  0  0  0  0  0  0  0  0  0  0  0
    5.5210    1.0770   17.7970 C   0  0  0  0  0  0  0  0  0  0  0  0
    7.2520   -0.1530   18.6220 C   0  0  0  0  0  0  0  0  0  0  0  0
    9.3090    1.0860   21.1120 O   0  0  0  0  0  0  0  0  0  0  0  0
    6.8730    0.0260   19.9520 C   0  0  0  0  0  0  0  0  0  0  0  0
    8.7520    0.0980   21.5690 C   0  0  0  0  0  0  0  0  0  0  0  0
    9.0350   -2.0730   22.7250 N   0  0  0  0  0  0  0  0  0  0  0  0
    7.6140   -0.4440   21.0620 N   0  0  0  0  0  0  0  0  0  0  0  0
    5.6990    0.8000   20.2020 C   0  0  0  0  0  0  0  0  0  0  0  0
   10.8410   -0.3770   22.8860 C   0  0  0  0  0  0  0  0  0  0  0  0
   11.7090   -1.0590   22.0410 C   0  0  0  0  0  0  0  0  0  0  0  0
   13.0490   -0.7260   22.0290 C   0  0  0  0  0  0  0  0  0  0  0  0
   13.5630    0.2550   22.8510 C   0  0  0  0  0  0  0  0  0  0  0  0
   12.7220    0.9120   23.7290 C   0  0  0  0  0  0  0  0  0  0  0  0
   11.3750    0.5870   23.7510 C   0  0  0  0  0  0  0  0  0  0  0  0
    9.2090    1.2820   24.4430 C   0  0  0  0  0  0  0  0  0  0  0  0
    6.6040    0.3510   17.5620 N   0  0  0  0  0  0  0  0  0  0  0  0
    8.6420   -0.0720   24.0620 C   0  0  0  0  0  0  0  0  0  0  0  0
  4  2  2  0
  5  4  1  0
  6  5  2  0
  8  6  1  0
  9  8  1  0
 12 10  2  0
 13 11  2  0
 13  3  1  0
  3 14  1  6
 15 13  1  0
 15 12  1  0
 16  8  2  0
 16  2  1  0
 16 12  1  0
 17  3  1  0
 18 17  2  0
 19  7  1  0
 19 18  1  0
 20 19  2  0
 21 20  1  0
 22 17  1  0
 22  1  1  0
 22 21  2  0
 23  1  1  0
 24 10  1  0
 24  9  2  0
 25 23  1  0
 25  3  1  0
M  END
