
     RDKit          3D

 21 22  0  0  0  0  0  0  0  0999 V2000
    7.0600   -1.3870   21.5310 N   0  0  0  0  0  0  0  0  0  0  0  0
   10.4160    2.6800   23.5610 C   0  0  0  0  0  0  0  0  0  0  0  0
   10.0910    1.3040   23.3540 O   0  0  0  0  0  0  0  0  0  0  0  0
   11.1160    0.4370   23.0860 C   0  0  0  0  0  0  0  0  0  0  0  0
    4.9230    1.8260   18.3850 N   0  0  0  0  0  0  0  0  0  0  0  0
    9.3640   -1.0870   22.7400 O   0  0  0  0  0  0  0  0  0  0  0  0
   12.4620    0.7780   23.0550 C   0  0  0  0  0  0  0  0  0  0  0  0
    5.2130   -2.4630   20.8420 O   0  0  0  0  0  0  0  0  0  0  0  0
   13.4040   -0.1910   22.7510 C   0  0  0  0  0  0  0  0  0  0  0  0
    6.4780    1.2600   16.8590 O   0  0  0  0  0  0  0  0  0  0  0  0
   13.0160   -1.4940   22.4970 C   0  0  0  0  0  0  0  0  0  0  0  0
   11.6760   -1.8510   22.5310 C   0  0  0  0  0  0  0  0  0  0  0  0
   10.7200   -0.8860   22.8070 C   0  0  0  0  0  0  0  0  0  0  0  0
    8.8530   -2.4260   22.8330 C   0  0  0  0  0  0  0  0  0  0  0  0
    7.3780   -2.3540   22.5740 C   0  0  0  0  0  0  0  0  0  0  0  0
    5.9490   -1.4780   20.8010 C   0  0  0  0  0  0  0  0  0  0  0  0
    5.5940   -0.2910   19.9650 C   0  0  0  0  0  0  0  0  0  0  0  0
    4.5820    0.6330   20.3900 C   0  0  0  0  0  0  0  0  0  0  0  0
    4.2810    1.6590   19.5700 C   0  0  0  0  0  0  0  0  0  0  0  0
    5.9080    0.9850   17.9230 C   0  0  0  0  0  0  0  0  0  0  0  0
    6.2260   -0.1100   18.7630 C   0  0  0  0  0  0  0  0  0  0  0  0
  3  2  1  0
  4  3  1  0
  7  4  2  0
  9  7  1  0
 11  9  2  0
 12 11  1  0
 13  6  1  0
 13 12  2  0
 13  4  1  0
 14  6  1  0
 15  1  1  0
 15 14  1  0
 16  8  2  0
 16  1  1  0
 17 16  1  0
 18 17  1  0
 19 18  2  0
 19  5  1  0
 20  5  1  0
 20 10  2  0
 21 20  1  0
 21 17  2  0
M  END
