
     RDKit          3D

 18 19  0  0  0  0  0  0  0  0999 V2000
   13.8120   -1.9310   21.3350 Br  0  0  0  0  0  0  0  0  0  0  0  0
   12.5180   -1.0020   22.3660 C   0  0  0  0  0  0  0  0  0  0  0  0
   12.9370   -0.0550   23.2800 C   0  0  0  0  0  0  0  0  0  0  0  0
   11.9800    0.5630   24.0700 C   0  0  0  0  0  0  0  0  0  0  0  0
   10.6380    0.2610   23.9030 C   0  0  0  0  0  0  0  0  0  0  0  0
   11.1900   -1.3250   22.1990 C   0  0  0  0  0  0  0  0  0  0  0  0
   10.2290   -0.6650   22.9540 C   0  0  2  0  0  0  0  0  0  0  0  0
    8.7660   -0.8880   22.6620 C   0  0  0  0  0  0  0  0  0  0  0  0
    8.3280   -0.1200   21.4320 C   0  0  2  0  0  0  0  0  0  0  0  0
    8.9460    0.8600   21.0220 O   0  0  0  0  0  0  0  0  0  0  0  0
    7.1830   -0.5620   20.8820 N   0  0  0  0  0  0  0  0  0  0  0  0
    6.5380    0.0530   19.7870 C   0  0  1  0  0  0  0  0  0  0  0  0
    5.3960    0.8380   20.0030 C   0  0  1  0  0  0  0  0  0  0  0  0
    4.8220    1.0560   21.3810 C   0  0  0  0  0  0  0  0  0  0  0  0
    7.0490   -0.0500   18.4960 C   0  0  0  0  0  0  0  0  0  0  0  0
    6.5110    0.5700   17.4420 N   0  0  0  0  0  0  0  0  0  0  0  0
    5.4230    1.3170   17.6590 C   0  0  0  0  0  0  0  0  0  0  0  0
    4.8380    1.4700   18.8990 C   0  0  0  0  0  0  0  0  0  0  0  0
  2  1  1  0
  3  2  1  0
  4  3  1  0
  5  4  1  0
  6  2  1  0
  7  5  1  0
  7  6  1  0
  7  8  1  6
  9  8  1  0
  9 10  1  1
 11  9  1  0
 12 11  1  1
 13 12  1  0
 13 14  1  1
 15 12  1  0
 16 15  1  0
 17 16  1  0
 18 17  1  0
 18 13  1  0
M  END
$$$$
