
     RDKit          3D

 16 16  0  0  0  0  0  0  0  0999 V2000
    9.7330    0.9630   21.2340 O   0  0  0  0  0  0  0  0  0  0  0  0
    9.3370   -0.1840   21.4330 C   0  0  0  0  0  0  0  0  0  0  0  0
   10.1790   -1.1660   22.2450 C   0  0  1  0  0  0  0  0  0  0  0  0
   11.5160   -0.6600   22.4320 O   0  0  0  0  0  0  0  0  0  0  0  0
   12.4650   -1.1420   21.5810 C   0  0  2  0  0  0  0  0  0  0  0  0
   13.0680   -2.1690   22.1870 F   0  0  0  0  0  0  0  0  0  0  0  0
   13.4370   -0.2160   21.4910 F   0  0  0  0  0  0  0  0  0  0  0  0
    9.6220   -1.3840   23.6360 C   0  0  0  0  0  0  0  0  0  0  0  0
    8.1790   -0.6900   20.9370 N   0  0  0  0  0  0  0  0  0  0  0  0
    7.2850   -0.0820   20.0200 C   0  0  0  0  0  0  0  0  0  0  0  0
    6.1070    0.5320   20.4860 C   0  0  0  0  0  0  0  0  0  0  0  0
    5.8460    0.7480   21.9550 C   0  0  0  0  0  0  0  0  0  0  0  0
    5.2200    1.0210   19.5330 C   0  0  0  0  0  0  0  0  0  0  0  0
    5.5360    0.9260   18.1920 C   0  0  0  0  0  0  0  0  0  0  0  0
    6.6690    0.3840   17.7360 N   0  0  0  0  0  0  0  0  0  0  0  0
    7.5180   -0.1150   18.6440 C   0  0  0  0  0  0  0  0  0  0  0  0
  2  1  2  0
  3  2  1  0
  4  3  1  0
  5  4  1  0
  5  6  1  1
  7  5  1  0
  3  8  1  1
  9  2  1  0
 10  9  1  0
 11 10  2  0
 12 11  1  0
 13 11  1  0
 14 13  2  0
 15 14  1  0
 16 15  2  0
 16 10  1  0
M  END
