
     RDKit          3D

  8  8  0  0  0  0  0  0  0  0999 V2000
   -0.5660    5.0920  -17.3160 C   0  0  0  0  0  0  0  0  0  0  0  0
   -0.8140    3.9680  -18.0710 C   0  0  0  0  0  0  0  0  0  0  0  0
   -0.3570    3.7420  -19.5120 C   0  0  0  0  0  0  0  0  0  0  0  0
   -1.5290    3.1050  -17.3160 O   0  0  0  0  0  0  0  0  0  0  0  0
   -1.7350    3.6980  -16.0670 N   0  0  0  0  0  0  0  0  0  0  0  0
   -1.1440    4.9080  -16.0760 C   0  0  0  0  0  0  0  0  0  0  0  0
   -1.1240    5.9070  -14.8930 C   0  0  0  0  0  0  0  0  0  0  0  0
   -0.2090    6.6920  -14.7530 O   0  0  0  0  0  0  0  0  0  0  0  0
  2  1  1  0
  3  2  1  0
  4  2  1  0
  5  4  1  0
  6  1  1  0
  6  5  1  0
  7  6  1  0
  8  7  1  0
M  END
$$$$
