
     RDKit          3D

 12 13  0  0  0  0  0  0  0  0999 V2000
    9.4160   -4.1610   20.5070 C   0  0  0  0  0  0  0  0  0  0  0  0
    8.3360   -3.8580   20.9630 O   0  0  0  0  0  0  0  0  0  0  0  0
   10.6440   -3.6360   21.0750 C   0  0  0  0  0  0  0  0  0  0  0  0
   11.8710   -3.9040   20.5060 C   0  0  0  0  0  0  0  0  0  0  0  0
   13.0240   -3.3550   21.0580 C   0  0  0  0  0  0  0  0  0  0  0  0
   12.9650   -2.5390   22.1650 C   0  0  0  0  0  0  0  0  0  0  0  0
   11.6930   -2.2850   22.7080 C   0  0  0  0  0  0  0  0  0  0  0  0
   10.5420   -2.8340   22.1580 C   0  0  0  0  0  0  0  0  0  0  0  0
    9.4330   -2.4430   22.8410 N   0  0  0  0  0  0  0  0  0  0  0  0
    9.9210   -1.6330   23.8610 N   0  0  0  0  0  0  0  0  0  0  0  0
   11.2290   -1.5690   23.7400 C   0  0  0  0  0  0  0  0  0  0  0  0
   12.3630   -0.4160   25.1740 I   0  0  0  0  0  0  0  0  0  0  0  0
  2  1  2  0
  3  1  1  0
  4  3  2  0
  5  4  1  0
  6  5  2  0
  7  6  1  0
  8  3  1  0
  8  7  2  0
  9  8  1  0
 10  9  1  0
 11 10  2  0
 11  7  1  0
 12 11  1  0
M  END
$$$$
