
     RDKit          3D

 13 14  0  0  0  0  0  0  0  0999 V2000
    8.5670   27.1200    0.1350 N   0  0  0  0  0  0  0  0  0  0  0  0
    7.9000   27.5690   -1.0880 C   0  0  0  0  0  0  0  0  0  0  0  0
    9.0220   25.7330    0.0190 C   0  0  0  0  0  0  0  0  0  0  0  0
    6.2460   23.7260    1.4070 N   0  0  0  0  0  0  0  0  0  0  0  0
    7.8690   24.8270    0.3200 C   0  0  0  0  0  0  0  0  0  0  0  0
    7.2570   24.6410    1.5260 C   0  0  0  0  0  0  0  0  0  0  0  0
    6.1830   23.2970    0.1050 C   0  0  0  0  0  0  0  0  0  0  0  0
    5.3390   22.3780   -0.5060 C   0  0  0  0  0  0  0  0  0  0  0  0
    5.5010   22.1190   -1.8560 C   0  0  0  0  0  0  0  0  0  0  0  0
    6.4920   22.7880   -2.5440 C   0  0  0  0  0  0  0  0  0  0  0  0
    7.3460   23.7030   -1.9690 C   0  0  0  0  0  0  0  0  0  0  0  0
    7.1910   23.9680   -0.6120 C   0  0  0  0  0  0  0  0  0  0  0  0
    6.6220   22.5520   -3.8770 F   0  0  0  0  0  0  0  0  0  0  0  0
  2  1  1  0
  3  1  1  0
  5  3  1  0
  6  5  1  0
  6  4  1  0
  7  4  1  0
  8  7  1  0
  9  8  1  0
 10  9  1  0
 11 10  1  0
 12 11  1  0
 12  7  1  0
 12  5  1  0
 13 10  1  0
M  END
$$$$
