
     RDKit          3D

 16 17  0  0  0  0  0  0  0  0999 V2000
    9.0650   -0.8790   22.0750 N   0  0  0  0  0  0  0  0  0  0  0  0
   13.4420    1.8840   23.0980 C   0  0  0  0  0  0  0  0  0  0  0  0
    8.8030    0.9140   20.6910 O   0  0  0  0  0  0  0  0  0  0  0  0
   12.3570    0.8590   23.0690 C   0  0  2  0  0  0  0  0  0  0  0  0
    7.1880   -0.6890   20.7170 N   0  0  0  0  0  0  0  0  0  0  0  0
   12.3670   -0.4140   23.5530 C   0  0  0  0  0  0  0  0  0  0  0  0
    5.9220    0.7430   17.5780 N   0  0  0  0  0  0  0  0  0  0  0  0
   11.1900   -1.1430   23.2720 C   0  0  0  0  0  0  0  0  0  0  0  0
   10.2800   -0.4110   22.5690 C   0  0  1  0  0  0  0  0  0  0  0  0
    8.3730   -0.1520   21.1210 C   0  0  0  0  0  0  0  0  0  0  0  0
    6.3090   -0.0630   19.8110 C   0  0  1  0  0  0  0  0  0  0  0  0
    5.1770    0.6070   20.2550 C   0  0  0  0  0  0  0  0  0  0  0  0
    4.4400    1.3620   19.3590 C   0  0  0  0  0  0  0  0  0  0  0  0
    4.8530    1.4030   18.0410 C   0  0  0  0  0  0  0  0  0  0  0  0
    6.6330    0.0290   18.4580 C   0  0  0  0  0  0  0  0  0  0  0  0
   10.8630    1.1900   22.2740 S   0  0  0  0  0  0  0  0  0  0  0  0
  4  2  1  6
  6  4  1  0
  8  6  1  0
  9  1  1  6
  9  8  1  0
 10  5  1  0
 10  3  1  0
 10  1  1  0
 11  5  1  1
 12 11  1  0
 13 12  1  0
 14 13  1  0
 14  7  1  0
 15 11  1  0
 15  7  1  0
 16  9  1  0
 16  4  1  0
M  END
$$$$
