
     RDKit          3D

 16 15  0  0  0  0  0  0  0  0999 V2000
    1.3740   -8.6480   21.2110 C   0  0  0  0  0  0  0  0  0  0  0  0
    2.8140   -7.2110   22.5170 N   0  0  0  0  0  0  0  0  0  0  0  0
    0.7670   -6.4750   21.9570 O   0  0  0  0  0  0  0  0  0  0  0  0
    1.6200   -7.3590   21.9290 C   0  0  0  0  0  0  0  0  0  0  0  0
    2.4420   -8.2330   26.2590 N   0  0  0  0  0  0  0  0  0  0  0  0
    3.8910   -8.4420   24.5680 O   0  0  0  0  0  0  0  0  0  0  0  0
    3.1240   -6.0500   23.3500 C   0  0  1  0  0  0  0  0  0  0  0  0
    5.4050   -6.0710   22.3560 N   0  0  0  0  0  0  0  0  0  0  0  0
    4.8460   -4.4810   23.8390 O   0  0  0  0  0  0  0  0  0  0  0  0
    2.8240   -6.3200   24.8270 C   0  0  0  0  0  0  0  0  0  0  0  0
    3.0910   -7.7620   25.2060 C   0  0  0  0  0  0  0  0  0  0  0  0
    4.5400   -5.4800   23.1930 C   0  0  0  0  0  0  0  0  0  0  0  0
    6.5840   -5.3810   21.8310 C   0  0  0  0  0  0  0  0  0  0  0  0
    6.6090   -5.2440   20.3170 C   0  0  0  0  0  0  0  0  0  0  0  0
    5.7820   -6.0000   19.6220 C   0  0  0  0  0  0  0  0  0  0  0  0
    7.7330   -4.1730   19.4230 S   0  0  0  0  0  0  0  0  0  0  0  0
  4  1  1  0
  4  3  2  0
  4  2  1  0
  7  2  1  0
  7 10  1  1
 11 10  1  0
 11  6  2  0
 11  5  1  0
 12  8  1  0
 12  7  1  0
 12  9  2  0
 13  8  1  0
 14 13  1  0
 15 14  2  0
 14 16  1  0
M  END
