
     RDKit          3D

 16 15  0  0  0  0  0  0  0  0999 V2000
    1.4320   -8.6760   21.2130 C   0  0  0  0  0  0  0  0  0  0  0  0
    1.6810   -7.3890   21.9330 C   0  0  0  0  0  0  0  0  0  0  0  0
    3.1880   -6.0870   23.3570 C   0  0  1  0  0  0  0  0  0  0  0  0
    2.8870   -6.3600   24.8340 C   0  0  0  0  0  0  0  0  0  0  0  0
    3.1520   -7.8040   25.2080 C   0  0  0  0  0  0  0  0  0  0  0  0
    4.6050   -5.5190   23.2010 C   0  0  0  0  0  0  0  0  0  0  0  0
    6.6480   -5.4210   21.8380 C   0  0  0  0  0  0  0  0  0  0  0  0
    6.6730   -5.2800   20.3240 C   0  0  0  0  0  0  0  0  0  0  0  0
    5.8440   -6.0330   19.6280 C   0  0  0  0  0  0  0  0  0  0  0  0
    2.8750   -7.2450   22.5220 N   0  0  0  0  0  0  0  0  0  0  0  0
    2.5020   -8.2760   26.2610 N   0  0  0  0  0  0  0  0  0  0  0  0
    5.4680   -6.1100   22.3620 N   0  0  0  0  0  0  0  0  0  0  0  0
    0.8290   -6.5030   21.9640 O   0  0  0  0  0  0  0  0  0  0  0  0
    3.9500   -8.4830   24.5680 O   0  0  0  0  0  0  0  0  0  0  0  0
    4.9130   -4.5220   23.8490 O   0  0  0  0  0  0  0  0  0  0  0  0
    7.7990   -4.2100   19.4330 S   0  0  0  0  0  0  0  0  0  0  0  0
  2  1  1  0
  3  4  1  1
  5  4  1  0
  6  3  1  0
  8  7  1  0
  9  8  1  0
 10  3  1  0
 10  2  1  0
 11  5  1  0
 12  6  1  0
 12  7  1  0
 13  2  1  0
 14  5  1  0
 15  6  1  0
  8 16  1  0
M  END
$$$$
