
     RDKit          3D

 13 13  0  0  0  0  0  0  0  0999 V2000
    0.1020    6.8560  -11.7850 N   0  0  0  0  0  0  0  0  0  0  0  0
    1.5060    6.4990  -11.6370 C   0  0  1  0  0  0  0  0  0  0  0  0
    2.3960    7.8140  -11.4530 C   0  0  0  0  0  0  0  0  0  0  0  0
    2.3000    8.7940  -12.6300 C   0  0  2  0  0  0  0  0  0  0  0  0
    2.8990    8.1930  -13.8900 C   0  0  0  0  0  0  0  0  0  0  0  0
    3.6790    9.3230  -14.5490 C   0  0  0  0  0  0  0  0  0  0  0  0
    3.8800   10.2910  -13.4940 N   0  0  0  0  0  0  0  0  0  0  0  0
    3.0940   10.0760  -12.3850 C   0  0  0  0  0  0  0  0  0  0  0  0
    3.0390   10.7990  -11.4460 O   0  0  0  0  0  0  0  0  0  0  0  0
    1.5880    5.5940  -10.3470 C   0  0  1  0  0  0  0  0  0  0  0  0
    0.6240    4.5820  -10.5860 O   0  0  0  0  0  0  0  0  0  0  0  0
    2.8960    4.8320  -10.3680 C   0  0  0  0  0  0  0  0  0  0  0  0
    3.9320    5.4710  -10.2030 O   0  0  0  0  0  0  0  0  0  0  0  0
  2  1  1  1
  3  2  1  0
  4  3  1  1
  5  4  1  0
  6  5  1  0
  7  6  1  0
  8  7  1  0
  8  4  1  0
  9  8  1  0
 10  2  1  0
 10 11  1  6
 12 10  1  0
 13 12  1  0
M  END
$$$$
