
     RDKit          3D

 15 16  0  0  0  0  0  0  0  0999 V2000
    7.6570   -4.6470   21.2240 N   0  0  0  0  0  0  0  0  0  0  0  0
    7.2550   -3.0590   19.4120 C   0  0  0  0  0  0  0  0  0  0  0  0
    5.8850   -4.9260   19.8590 O   0  0  0  0  0  0  0  0  0  0  0  0
    6.8830   -4.2930   20.2080 C   0  0  0  0  0  0  0  0  0  0  0  0
    7.1850   -5.5040   22.2960 C   0  0  0  0  0  0  0  0  0  0  0  0
    6.1120   -4.8130   23.0940 C   0  0  0  0  0  0  0  0  0  0  0  0
    6.2860   -3.5050   23.5090 C   0  0  0  0  0  0  0  0  0  0  0  0
    5.3140   -2.8180   24.2400 C   0  0  0  0  0  0  0  0  0  0  0  0
    4.1710   -3.5040   24.5250 C   0  0  0  0  0  0  0  0  0  0  0  0
    2.1260   -4.1380   25.1600 C   0  0  0  0  0  0  0  0  0  0  0  0
    3.9810   -4.8020   24.1090 C   0  0  0  0  0  0  0  0  0  0  0  0
    4.9210   -5.4830   23.3900 C   0  0  0  0  0  0  0  0  0  0  0  0
    3.0680   -3.0650   25.2180 O   0  0  0  0  0  0  0  0  0  0  0  0
    2.7470   -5.2510   24.5180 O   0  0  0  0  0  0  0  0  0  0  0  0
    8.7020   -3.3450   18.3560 S   0  0  0  0  0  0  0  0  0  0  0  0
  4  3  1  0
  4  2  1  0
  4  1  1  0
  5  1  1  0
  6  5  1  0
  7  6  1  0
  8  7  1  0
  9  8  1  0
 11  9  1  0
 12 11  1  0
 12  6  1  0
 13 10  1  0
 13  9  1  0
 14 11  1  0
 14 10  1  0
  2 15  1  0
M  END
$$$$
