
     RDKit          3D

 18 19  0  0  0  0  0  0  0  0999 V2000
   13.8740   -1.8070   21.2360 Cl  0  0  0  0  0  0  0  0  0  0  0  0
   12.6620   -1.0590   22.2360 C   0  0  0  0  0  0  0  0  0  0  0  0
   13.0450   -0.1580   23.2040 C   0  0  0  0  0  0  0  0  0  0  0  0
   12.0710    0.3820   24.0290 C   0  0  0  0  0  0  0  0  0  0  0  0
   10.7360    0.0500   23.8450 C   0  0  0  0  0  0  0  0  0  0  0  0
   11.3410   -1.4070   22.0480 C   0  0  0  0  0  0  0  0  0  0  0  0
   10.3570   -0.8340   22.8450 C   0  0  2  0  0  0  0  0  0  0  0  0
    8.9000   -1.1180   22.5630 C   0  0  0  0  0  0  0  0  0  0  0  0
    8.4490   -0.3100   21.3640 C   0  0  0  0  0  0  0  0  0  0  0  0
    9.0310    0.7130   21.0220 O   0  0  0  0  0  0  0  0  0  0  0  0
    7.3530   -0.7800   20.7430 N   0  0  0  0  0  0  0  0  0  0  0  0
    6.6300   -0.1170   19.7300 C   0  0  2  0  0  0  0  0  0  0  0  0
    7.0170   -0.1460   18.3950 C   0  0  0  0  0  0  0  0  0  0  0  0
    6.3890    0.5350   17.4350 N   0  0  0  0  0  0  0  0  0  0  0  0
    5.3380    1.2860   17.7930 C   0  0  0  0  0  0  0  0  0  0  0  0
    5.5360    0.6730   20.0690 C   0  0  0  0  0  0  0  0  0  0  0  0
    4.8720    1.4040   19.0970 C   0  0  0  0  0  0  0  0  0  0  0  0
    3.7030    2.2940   19.4460 C   0  0  0  0  0  0  0  0  0  0  0  0
  2  1  1  0
  3  2  1  0
  4  3  1  0
  5  4  1  0
  6  2  1  0
  7  5  1  0
  7  6  1  0
  7  8  1  6
  9  8  1  0
 10  9  1  0
 11  9  1  0
 12 11  1  1
 13 12  1  0
 14 13  1  0
 15 14  1  0
 16 12  1  0
 17 15  1  0
 17 16  1  0
 18 17  1  0
M  END
$$$$
