
     RDKit          3D

  8  8  0  0  0  0  0  0  0  0999 V2000
   -1.1680    5.2120  -17.5000 C   0  0  0  0  0  0  0  0  0  0  0  0
   -1.2340    4.0380  -18.2150 C   0  0  0  0  0  0  0  0  0  0  0  0
   -1.1980    3.9140  -19.7370 C   0  0  0  0  0  0  0  0  0  0  0  0
   -1.3370    3.0170  -17.3380 O   0  0  0  0  0  0  0  0  0  0  0  0
   -1.3380    3.5580  -16.0490 N   0  0  0  0  0  0  0  0  0  0  0  0
   -1.2350    4.8960  -16.1590 C   0  0  0  0  0  0  0  0  0  0  0  0
   -1.1940    5.8930  -14.9770 C   0  0  0  0  0  0  0  0  0  0  0  0
   -0.2610    6.6610  -14.8670 O   0  0  0  0  0  0  0  0  0  0  0  0
  2  1  1  0
  3  2  1  0
  4  2  1  0
  5  4  1  0
  6  1  1  0
  6  5  1  0
  7  6  1  0
  8  7  1  0
M  END
$$$$
