
     RDKit          3D

 25 28  0  0  0  0  0  0  0  0999 V2000
   13.9220   -1.7720   20.9240 Cl  0  0  0  0  0  0  0  0  0  0  0  0
   12.8220   -0.9250   21.9760 C   0  0  0  0  0  0  0  0  0  0  0  0
   13.3130    0.0470   22.8210 C   0  0  0  0  0  0  0  0  0  0  0  0
   12.4440    0.6960   23.6790 C   0  0  0  0  0  0  0  0  0  0  0  0
   11.4820   -1.2550   21.9480 C   0  0  0  0  0  0  0  0  0  0  0  0
   10.5930   -0.5950   22.7940 C   0  0  0  0  0  0  0  0  0  0  0  0
   11.0970    0.3690   23.6600 C   0  0  0  0  0  0  0  0  0  0  0  0
   10.2900    1.0300   24.5470 O   0  0  0  0  0  0  0  0  0  0  0  0
    9.2980    0.1760   25.1310 C   0  0  0  0  0  0  0  0  0  0  0  0
    8.3600   -0.4250   24.1080 C   0  0  0  0  0  0  0  0  0  0  0  0
    9.1020   -0.8600   22.7910 C   0  0  1  0  0  0  0  0  0  0  0  0
    8.5300   -0.0930   21.5960 C   0  0  0  0  0  0  0  0  0  0  0  0
    9.1820    0.7620   21.0000 O   0  0  0  0  0  0  0  0  0  0  0  0
    7.2190   -0.3350   21.3530 N   0  0  0  0  0  0  0  0  0  0  0  0
    6.4170    0.0580   20.2650 C   0  0  0  0  0  0  0  0  0  0  0  0
    6.9300    0.3120   19.0070 C   0  0  0  0  0  0  0  0  0  0  0  0
    5.1040    0.5410   20.5780 C   0  0  0  0  0  0  0  0  0  0  0  0
    4.4110    1.2980   19.5900 C   0  0  0  0  0  0  0  0  0  0  0  0
    5.0160    1.5020   18.3460 C   0  0  0  0  0  0  0  0  0  0  0  0
    6.2430    1.0150   18.0770 N   0  0  0  0  0  0  0  0  0  0  0  0
    6.8000    1.2710   16.9230 O   0  0  0  0  0  0  0  0  0  0  0  0
    3.1670    1.8860   19.9190 C   0  0  0  0  0  0  0  0  0  0  0  0
    2.6320    1.7260   21.1640 C   0  0  0  0  0  0  0  0  0  0  0  0
    3.2940    0.9810   22.1270 C   0  0  0  0  0  0  0  0  0  0  0  0
    4.4970    0.3960   21.8500 C   0  0  0  0  0  0  0  0  0  0  0  0
  2  1  1  0
  3  2  2  0
  4  3  1  0
  5  2  1  0
  6  5  2  0
  7  6  1  0
  7  4  2  0
  8  7  1  0
  9  8  1  0
 10  9  1  0
 11 10  1  0
 11  6  1  0
 11 12  1  6
 13 12  2  0
 14 12  1  0
 15 14  1  0
 16 15  2  0
 17 15  1  0
 18 17  2  0
 19 18  1  0
 20 19  2  0
 20 16  1  0
 21 20  1  0
 22 18  1  0
 23 22  2  0
 24 23  1  0
 25 17  1  0
 25 24  2  0
M  CHG  2  20   1  21  -1
M  END
