
     RDKit          3D

 18 19  0  0  0  0  0  0  0  0999 V2000
    8.6730    0.8720   21.3890 O   0  0  0  0  0  0  0  0  0  0  0  0
    8.3200   -0.2870   21.1830 C   0  0  0  0  0  0  0  0  0  0  0  0
    8.9520   -1.4570   21.9120 C   0  0  0  0  0  0  0  0  0  0  0  0
    9.9480   -0.9610   22.9350 C   0  0  0  0  0  0  0  0  0  0  0  0
   11.2650   -0.7200   22.5700 C   0  0  0  0  0  0  0  0  0  0  0  0
   12.1410   -0.0540   23.4130 C   0  0  0  0  0  0  0  0  0  0  0  0
   13.5330    0.2980   22.9570 C   0  0  0  0  0  0  0  0  0  0  0  0
   11.6820    0.3270   24.6680 C   0  0  0  0  0  0  0  0  0  0  0  0
    9.5290   -0.5830   24.2050 C   0  0  0  0  0  0  0  0  0  0  0  0
   10.3840    0.0650   25.0870 C   0  0  0  0  0  0  0  0  0  0  0  0
    9.9050    0.4980   26.4510 C   0  0  0  0  0  0  0  0  0  0  0  0
    7.4870   -0.6350   20.1570 N   0  0  0  0  0  0  0  0  0  0  0  0
    6.6320    0.0130   19.2990 C   0  0  0  0  0  0  0  0  0  0  0  0
    5.8500    1.1300   19.5910 N   0  0  0  0  0  0  0  0  0  0  0  0
    5.5370    1.6940   20.9020 C   0  0  0  0  0  0  0  0  0  0  0  0
    5.3480    1.5600   18.4270 C   0  0  0  0  0  0  0  0  0  0  0  0
    5.7480    0.7980   17.4520 N   0  0  0  0  0  0  0  0  0  0  0  0
    6.5550   -0.1920   17.9950 N   0  0  0  0  0  0  0  0  0  0  0  0
  2  1  2  0
  3  2  1  0
  4  3  1  0
  5  4  2  0
  6  5  1  0
  7  6  1  0
  8  6  2  0
  9  4  1  0
 10  9  2  0
 10  8  1  0
 11 10  1  0
 12  2  1  0
 13 12  1  0
 14 13  1  0
 15 14  1  0
 16 14  1  0
 17 16  2  0
 18 17  1  0
 18 13  2  0
M  END
