
     RDKit          3D

 20 21  0  0  0  0  0  0  0  0999 V2000
    8.7430    0.4590   20.9400 O   0  0  0  0  0  0  0  0  0  0  0  0
    8.1100   -0.5760   21.1420 C   0  0  0  0  0  0  0  0  0  0  0  0
    8.5680   -1.6100   22.1460 C   0  0  0  0  0  0  0  0  0  0  0  0
    9.8420   -1.1170   22.7810 C   0  0  0  0  0  0  0  0  0  0  0  0
   11.0690   -1.4160   22.2020 C   0  0  0  0  0  0  0  0  0  0  0  0
   12.2230   -0.9200   22.7620 C   0  0  0  0  0  0  0  0  0  0  0  0
   13.7540   -1.3630   22.0650 Cl  0  0  0  0  0  0  0  0  0  0  0  0
   12.2030   -0.1220   23.8890 C   0  0  0  0  0  0  0  0  0  0  0  0
    9.7980   -0.3300   23.9260 C   0  0  0  0  0  0  0  0  0  0  0  0
   10.9780    0.1470   24.4790 C   0  0  0  0  0  0  0  0  0  0  0  0
   11.0810    0.7940   25.6840 O   0  0  0  0  0  0  0  0  0  0  0  0
    9.9010    0.9480   26.4790 C   0  0  0  0  0  0  0  0  0  0  0  0
    6.9460   -0.8760   20.5350 N   0  0  0  0  0  0  0  0  0  0  0  0
    6.3350   -0.0700   19.5590 C   0  0  0  0  0  0  0  0  0  0  0  0
    5.2400    0.7400   19.9050 C   0  0  0  0  0  0  0  0  0  0  0  0
    4.7190    0.8220   21.3180 C   0  0  0  0  0  0  0  0  0  0  0  0
    4.6980    1.5370   18.9020 C   0  0  0  0  0  0  0  0  0  0  0  0
    5.2610    1.5240   17.6430 C   0  0  0  0  0  0  0  0  0  0  0  0
    6.3190    0.7700   17.3120 N   0  0  0  0  0  0  0  0  0  0  0  0
    6.8360   -0.0190   18.2590 C   0  0  0  0  0  0  0  0  0  0  0  0
  2  1  2  0
  3  2  1  0
  4  3  1  0
  5  4  2  0
  6  5  1  0
  7  6  1  0
  8  6  2  0
  9  4  1  0
 10  9  2  0
 10  8  1  0
 11 10  1  0
 12 11  1  0
 13  2  1  0
 14 13  1  0
 15 14  2  0
 16 15  1  0
 17 15  1  0
 18 17  2  0
 19 18  1  0
 20 19  2  0
 20 14  1  0
M  END
