
     RDKit          3D

 16 16  0  0  0  0  0  0  0  0999 V2000
    9.7440    1.0290   21.1050 O   0  0  0  0  0  0  0  0  0  0  0  0
    9.1850    0.0580   21.6080 C   0  0  0  0  0  0  0  0  0  0  0  0
    9.8340   -0.7040   22.7590 C   0  0  2  0  0  0  0  0  0  0  0  0
   10.9290    0.0530   23.3030 O   0  0  0  0  0  0  0  0  0  0  0  0
   10.6210    0.8340   24.3560 C   0  0  1  0  0  0  0  0  0  0  0  0
   10.9250    0.1050   25.4360 F   0  0  0  0  0  0  0  0  0  0  0  0
   11.4400    1.8980   24.2040 F   0  0  0  0  0  0  0  0  0  0  0  0
   10.4230   -2.0240   22.3150 C   0  0  0  0  0  0  0  0  0  0  0  0
    7.9580   -0.3890   21.2480 N   0  0  0  0  0  0  0  0  0  0  0  0
    7.1560    0.0850   20.1820 C   0  0  0  0  0  0  0  0  0  0  0  0
    5.9210    0.7010   20.4550 C   0  0  0  0  0  0  0  0  0  0  0  0
    5.4370    0.9330   21.8630 C   0  0  0  0  0  0  0  0  0  0  0  0
    5.1470    1.0940   19.3670 C   0  0  0  0  0  0  0  0  0  0  0  0
    5.6100    0.8700   18.0850 C   0  0  0  0  0  0  0  0  0  0  0  0
    6.7890    0.3060   17.8120 N   0  0  0  0  0  0  0  0  0  0  0  0
    7.5410   -0.0770   18.8490 C   0  0  0  0  0  0  0  0  0  0  0  0
  2  1  2  0
  3  2  1  0
  4  3  1  0
  5  4  1  0
  5  6  1  1
  7  5  1  0
  3  8  1  6
  9  2  1  0
 10  9  1  0
 11 10  2  0
 12 11  1  0
 13 11  1  0
 14 13  2  0
 15 14  1  0
 16 15  2  0
 16 10  1  0
M  END
