
     RDKit          3D

 18 19  0  0  0  0  0  0  0  0999 V2000
    6.4370    0.5990   17.4200 N   0  0  0  0  0  0  0  0  0  0  0  0
    4.7460    1.0910   21.3570 C   0  0  0  0  0  0  0  0  0  0  0  0
    8.8700    0.9030   21.0010 O   0  0  0  0  0  0  0  0  0  0  0  0
    5.3200    0.8710   19.9800 C   0  0  1  0  0  0  0  0  0  0  0  0
    7.1100   -0.5240   20.8630 N   0  0  0  0  0  0  0  0  0  0  0  0
    4.7610    1.4990   18.8740 C   0  0  0  0  0  0  0  0  0  0  0  0
    5.3470    1.3440   17.6350 C   0  0  0  0  0  0  0  0  0  0  0  0
    6.9760   -0.0180   18.4760 C   0  0  0  0  0  0  0  0  0  0  0  0
    6.4640    0.0880   19.7660 C   0  0  2  0  0  0  0  0  0  0  0  0
    8.2540   -0.0780   21.4130 C   0  0  2  0  0  0  0  0  0  0  0  0
    8.6920   -0.8420   22.6450 C   0  0  0  0  0  0  0  0  0  0  0  0
   10.1560   -0.6150   22.9360 C   0  0  2  0  0  0  0  0  0  0  0  0
   10.5620    0.3140   23.8840 C   0  0  0  0  0  0  0  0  0  0  0  0
   11.9040    0.6200   24.0500 C   0  0  0  0  0  0  0  0  0  0  0  0
   12.8620    0.0010   23.2620 C   0  0  0  0  0  0  0  0  0  0  0  0
   12.4450   -0.9490   22.3510 C   0  0  0  0  0  0  0  0  0  0  0  0
   11.1180   -1.2750   22.1830 C   0  0  0  0  0  0  0  0  0  0  0  0
   13.7420   -1.8780   21.3230 Br  0  0  0  0  0  0  0  0  0  0  0  0
  4  2  1  1
  6  4  1  0
  7  6  1  0
  7  1  1  0
  8  1  1  0
  9  4  1  0
  9  8  1  0
  9  5  1  1
 10  5  1  0
 10  3  1  1
 11 10  1  0
 12 11  1  6
 13 12  1  0
 14 13  1  0
 15 14  1  0
 16 15  1  0
 17 12  1  0
 17 16  1  0
 18 16  1  0
M  END
$$$$
