
     RDKit          3D

 22 24  0  0  0  0  0  0  0  0999 V2000
    9.6800    0.8310   20.9380 O   0  0  0  0  0  0  0  0  0  0  0  0
    9.0740   -0.1480   21.3610 C   0  0  0  0  0  0  0  0  0  0  0  0
    7.7540   -0.3430   21.1730 N   0  0  0  0  0  0  0  0  0  0  0  0
    6.9630   -0.0260   20.0450 C   0  0  0  0  0  0  0  0  0  0  0  0
    7.4930    0.0810   18.7570 C   0  0  0  0  0  0  0  0  0  0  0  0
    6.8310    0.5930   17.7130 N   0  0  0  0  0  0  0  0  0  0  0  0
    5.5900    1.0300   17.9370 C   0  0  0  0  0  0  0  0  0  0  0  0
    4.9730    0.9750   19.1710 C   0  0  0  0  0  0  0  0  0  0  0  0
    5.6530    0.4360   20.2590 C   0  0  0  0  0  0  0  0  0  0  0  0
    5.0190    0.4260   21.6260 C   0  0  0  0  0  0  0  0  0  0  0  0
    9.7680   -1.1760   22.2350 C   0  0  0  0  0  0  0  0  0  0  0  0
    8.9660   -1.6160   23.3610 N   0  0  0  0  0  0  0  0  0  0  0  0
    9.1940   -2.7650   24.0670 C   0  0  0  0  0  0  0  0  0  0  0  0
    8.2730   -3.1720   25.0820 C   0  0  0  0  0  0  0  0  0  0  0  0
    7.0810   -2.4670   25.3890 C   0  0  0  0  0  0  0  0  0  0  0  0
    6.2300   -2.9220   26.3520 C   0  0  0  0  0  0  0  0  0  0  0  0
    6.5150   -4.0840   27.0560 C   0  0  0  0  0  0  0  0  0  0  0  0
    7.6530   -4.7950   26.7980 C   0  0  0  0  0  0  0  0  0  0  0  0
    8.5560   -4.3610   25.8010 C   0  0  0  0  0  0  0  0  0  0  0  0
    9.6620   -5.1290   25.5470 N   0  0  0  0  0  0  0  0  0  0  0  0
   10.4800   -4.7090   24.5980 C   0  0  0  0  0  0  0  0  0  0  0  0
   10.2990   -3.5600   23.8470 C   0  0  0  0  0  0  0  0  0  0  0  0
  2  1  2  0
  3  2  1  0
  4  3  1  0
  5  4  2  0
  6  5  1  0
  7  6  2  0
  8  7  1  0
  9  8  2  0
  9  4  1  0
 10  9  1  0
 11  2  1  0
 12 11  1  0
 13 12  1  0
 14 13  1  0
 15 14  2  0
 16 15  1  0
 17 16  2  0
 18 17  1  0
 19 18  2  0
 19 14  1  0
 20 19  1  0
 21 20  2  0
 22 21  1  0
 22 13  2  0
M  END
