
     RDKit          3D

 19 20  0  0  0  0  0  0  0  0999 V2000
    7.1850   -0.6340   20.8640 N   0  0  0  0  0  0  0  0  0  0  0  0
    7.9240   -1.1270   23.8540 C   0  0  0  0  0  0  0  0  0  0  0  0
    8.9820    0.7280   21.1560 O   0  0  0  0  0  0  0  0  0  0  0  0
   13.7760   -1.7880   21.2090 Cl  0  0  0  0  0  0  0  0  0  0  0  0
    8.7980   -1.2000   22.6000 C   0  0  1  0  0  0  0  0  0  0  0  0
    6.4500    0.7120   17.5260 N   0  0  0  0  0  0  0  0  0  0  0  0
    8.3410   -0.2750   21.4680 C   0  0  0  0  0  0  0  0  0  0  0  0
    6.5530    0.0970   19.8450 C   0  0  0  0  0  0  0  0  0  0  0  0
    7.0400    0.0690   18.5390 C   0  0  0  0  0  0  0  0  0  0  0  0
    5.3340    1.3960   17.7990 C   0  0  0  0  0  0  0  0  0  0  0  0
    4.7830    1.4910   19.0630 C   0  0  0  0  0  0  0  0  0  0  0  0
    5.4010    0.8490   20.1290 C   0  0  2  0  0  0  0  0  0  0  0  0
    4.8940    1.0370   21.5360 C   0  0  0  0  0  0  0  0  0  0  0  0
   10.2650   -0.8890   22.8760 C   0  0  2  0  0  0  0  0  0  0  0  0
   10.6370    0.0310   23.8510 C   0  0  0  0  0  0  0  0  0  0  0  0
   11.9580    0.4300   23.9760 C   0  0  0  0  0  0  0  0  0  0  0  0
   12.9280   -0.0890   23.1290 C   0  0  0  0  0  0  0  0  0  0  0  0
   12.5580   -1.0460   22.2050 C   0  0  0  0  0  0  0  0  0  0  0  0
   11.2460   -1.4530   22.0690 C   0  0  0  0  0  0  0  0  0  0  0  0
  5  2  1  1
  7  3  1  0
  7  1  1  0
  7  5  1  0
  8  1  1  0
  9  8  1  0
  9  6  1  0
 10  6  1  0
 11 10  1  0
 12 11  1  0
 12  8  1  0
 12 13  1  1
 14  5  1  0
 14 15  1  6
 16 15  1  0
 17 16  1  0
 18  4  1  0
 18 17  1  0
 19 14  1  0
 19 18  1  0
M  END
$$$$
