
     RDKit          3D

 19 20  0  0  0  0  0  0  0  0999 V2000
    7.9800    4.3890   22.5360 N   0  0  0  0  0  0  0  0  0  0  0  0
    7.8750    3.2570   22.4280 C   0  0  0  0  0  0  0  0  0  0  0  0
    7.8040    1.7920   22.2880 C   0  0  0  0  0  0  0  0  0  0  0  0
    6.5080    1.2710   21.9350 O   0  0  0  0  0  0  0  0  0  0  0  0
    6.2810    0.9400   20.6210 C   0  0  0  0  0  0  0  0  0  0  0  0
    5.5520    1.7570   19.7680 C   0  0  0  0  0  0  0  0  0  0  0  0
    5.5380    1.4800   18.4100 C   0  0  0  0  0  0  0  0  0  0  0  0
    6.2540    0.4150   17.9080 C   0  0  0  0  0  0  0  0  0  0  0  0
    6.9370   -0.4330   18.7630 C   0  0  0  0  0  0  0  0  0  0  0  0
    6.9200   -0.2120   20.1430 C   0  0  0  0  0  0  0  0  0  0  0  0
    7.4120   -1.3510   20.9850 C   0  0  0  0  0  0  0  0  0  0  0  0
    6.6840   -2.3130   21.2140 O   0  0  0  0  0  0  0  0  0  0  0  0
    8.6520   -1.2610   21.4760 N   0  0  0  0  0  0  0  0  0  0  0  0
    9.1060   -2.1380   22.5330 C   0  0  0  0  0  0  0  0  0  0  0  0
   10.4770   -1.7960   23.0100 C   0  0  0  0  0  0  0  0  0  0  0  0
   10.8740   -1.6670   24.3090 C   0  0  0  0  0  0  0  0  0  0  0  0
   12.5250   -1.3360   24.3810 S   0  0  0  0  0  0  0  0  0  0  0  0
   12.7270   -1.3570   22.7220 N   0  0  0  0  0  0  0  0  0  0  0  0
   11.5630   -1.6050   22.1380 C   0  0  0  0  0  0  0  0  0  0  0  0
  2  1  3  0
  3  2  1  0
  4  3  1  0
  5  4  1  0
  6  5  2  0
  7  6  1  0
  8  7  2  0
  9  8  1  0
 10  9  2  0
 10  5  1  0
 11 10  1  0
 12 11  2  0
 13 11  1  0
 14 13  1  0
 15 14  1  0
 16 15  2  0
 17 16  1  0
 18 17  1  0
 19 15  1  0
 19 18  2  0
M  END
