
     RDKit          3D

 19 21  0  0  0  0  0  0  0  0999 V2000
   25.3520  -27.9140   19.6010 Cl  0  0  0  0  0  0  0  0  0  0  0  0
   24.5820  -27.1740   18.2300 C   0  0  0  0  0  0  0  0  0  0  0  0
   24.7760  -27.7260   16.9780 C   0  0  0  0  0  0  0  0  0  0  0  0
   24.1930  -27.1340   15.8710 C   0  0  0  0  0  0  0  0  0  0  0  0
   23.8120  -26.0440   18.4270 C   0  0  0  0  0  0  0  0  0  0  0  0
   23.2260  -25.4310   17.3230 C   0  0  0  0  0  0  0  0  0  0  0  0
   22.4490  -24.2300   17.1240 C   0  0  0  0  0  0  0  0  0  0  0  0
   21.9460  -23.2410   17.9620 C   0  0  0  0  0  0  0  0  0  0  0  0
   21.2880  -22.1590   17.4070 C   0  0  0  0  0  0  0  0  0  0  0  0
   23.4320  -25.9890   16.0470 C   0  0  0  0  0  0  0  0  0  0  0  0
   22.8280  -25.1890   15.1000 N   0  0  0  0  0  0  0  0  0  0  0  0
   22.2440  -24.1130   15.7340 C   0  0  0  0  0  0  0  0  0  0  0  0
   21.5950  -23.0260   15.1750 C   0  0  0  0  0  0  0  0  0  0  0  0
   21.1280  -22.0280   16.0260 C   0  0  0  0  0  0  0  0  0  0  0  0
   20.4960  -20.7850   15.4210 C   0  0  1  0  0  0  0  0  0  0  0  0
   19.7540  -19.9670   16.4590 C   0  0  0  0  0  0  0  0  0  0  0  0
   21.5790  -20.0260   14.6830 C   0  0  0  0  0  0  0  0  0  0  0  0
   21.6150  -20.0350   13.4760 O   0  0  0  0  0  0  0  0  0  0  0  0
   22.4710  -19.4220   15.4370 O   0  0  0  0  0  0  0  0  0  0  0  0
  2  1  1  0
  3  2  2  0
  4  3  1  0
  5  2  1  0
  6  5  2  0
  7  6  1  0
  8  7  2  0
  9  8  1  0
 10  4  2  0
 10  6  1  0
 11 10  1  0
 12 11  1  0
 12  7  1  0
 13 12  2  0
 14 13  1  0
 14  9  2  0
 15 14  1  0
 15 16  1  1
 17 15  1  0
 18 17  2  0
 19 17  1  0
M  END
