
     RDKit          3D

 20 21  0  0  0  0  0  0  0  0999 V2000
    7.7930   -2.6210   20.9380 O   0  0  0  0  0  0  0  0  0  0  0  0
    7.9450   -1.6940   21.7240 C   0  0  0  0  0  0  0  0  0  0  0  0
    8.5750   -1.8970   23.1030 C   0  0  2  0  0  0  0  0  0  0  0  0
    9.9640   -1.2710   23.1460 C   0  0  0  0  0  0  0  0  0  0  0  0
   10.9210   -1.5890   22.1900 C   0  0  0  0  0  0  0  0  0  0  0  0
   12.1500   -0.9430   22.1740 C   0  0  0  0  0  0  0  0  0  0  0  0
   12.4370    0.0240   23.1170 C   0  0  0  0  0  0  0  0  0  0  0  0
   11.5060    0.3270   24.0920 C   0  0  0  0  0  0  0  0  0  0  0  0
   10.2770   -0.3160   24.1060 C   0  0  0  0  0  0  0  0  0  0  0  0
    8.6050   -3.3960   23.4380 C   0  0  0  0  0  0  0  0  0  0  0  0
    8.9530   -3.7080   24.8800 C   0  0  0  0  0  0  0  0  0  0  0  0
    8.8570   -5.1460   25.1310 N   0  0  0  0  0  0  0  0  0  0  0  0
    9.7700   -5.5520   26.1980 C   0  0  0  0  0  0  0  0  0  0  0  0
    7.4410   -0.4640   21.5110 N   0  0  0  0  0  0  0  0  0  0  0  0
    7.0460    0.1250   20.2860 C   0  0  0  0  0  0  0  0  0  0  0  0
    7.4820   -0.2370   19.0100 C   0  0  0  0  0  0  0  0  0  0  0  0
    6.9180    0.2110   17.8830 N   0  0  0  0  0  0  0  0  0  0  0  0
    5.8710    1.0360   18.0030 C   0  0  0  0  0  0  0  0  0  0  0  0
    5.3630    1.4500   19.2180 C   0  0  0  0  0  0  0  0  0  0  0  0
    5.9670    0.9960   20.3740 C   0  0  0  0  0  0  0  0  0  0  0  0
  2  1  2  0
  3  2  1  0
  4  3  1  0
  5  4  2  0
  6  5  1  0
  7  6  2  0
  8  7  1  0
  9  4  1  0
  9  8  2  0
  3 10  1  6
 11 10  1  0
 12 11  1  0
 13 12  1  0
 14  2  1  0
 15 14  1  0
 16 15  2  0
 17 16  1  0
 18 17  2  0
 19 18  1  0
 20 19  2  0
 20 15  1  0
M  END
