
     RDKit          3D

 12 12  0  0  0  0  0  0  0  0999 V2000
    7.4590   -3.1620   21.3680 N   0  0  0  0  0  0  0  0  0  0  0  0
    8.5050   -2.6040   19.3280 C   0  0  0  0  0  0  0  0  0  0  0  0
    6.3190   -3.5820   19.4400 O   0  0  0  0  0  0  0  0  0  0  0  0
    6.4100   -5.9140   21.7640 Cl  0  0  0  0  0  0  0  0  0  0  0  0
    7.3050   -3.1770   20.0340 C   0  0  0  0  0  0  0  0  0  0  0  0
    4.9780   -4.6880   23.5520 N   0  0  0  0  0  0  0  0  0  0  0  0
    6.4640   -3.2670   22.3610 C   0  0  0  0  0  0  0  0  0  0  0  0
    6.0330   -2.1660   23.0980 C   0  0  0  0  0  0  0  0  0  0  0  0
    5.0640   -2.3540   24.0600 C   0  0  0  0  0  0  0  0  0  0  0  0
    4.5700   -3.6250   24.2510 C   0  0  0  0  0  0  0  0  0  0  0  0
    5.9040   -4.5070   22.6350 C   0  0  0  0  0  0  0  0  0  0  0  0
    9.1640   -3.4230   17.8520 S   0  0  0  0  0  0  0  0  0  0  0  0
  5  3  2  0
  5  2  1  0
  5  1  1  0
  7  1  1  0
  8  7  1  0
  9  8  2  0
 10  9  1  0
 10  6  2  0
 11  6  1  0
 11  4  1  0
 11  7  2  0
  2 12  1  0
M  END
