
     RDKit          3D

 13 13  0  0  0  0  0  0  0  0999 V2000
   -4.0310    5.3220  -12.6690 N   0  0  0  0  0  0  0  0  0  0  0  0
   -5.1950    4.7250  -12.0670 C   0  0  1  0  0  0  0  0  0  0  0  0
   -6.2870    4.5030  -13.1060 C   0  0  0  0  0  0  0  0  0  0  0  0
   -6.7590    5.7750  -13.7580 C   0  0  2  0  0  0  0  0  0  0  0  0
   -7.5480    6.7100  -12.7930 C   0  0  0  0  0  0  0  0  0  0  0  0
   -8.6880    7.2980  -13.6380 C   0  0  0  0  0  0  0  0  0  0  0  0
   -8.8870    6.3790  -14.7080 N   0  0  0  0  0  0  0  0  0  0  0  0
   -7.8100    5.5370  -14.8570 C   0  0  0  0  0  0  0  0  0  0  0  0
   -7.8180    4.7560  -15.7360 O   0  0  0  0  0  0  0  0  0  0  0  0
   -4.7250    3.3960  -11.4640 C   0  0  1  0  0  0  0  0  0  0  0  0
   -3.5350    3.7390  -10.6780 O   0  0  0  0  0  0  0  0  0  0  0  0
   -5.7780    2.9430  -10.3970 C   0  0  0  0  0  0  0  0  0  0  0  0
   -6.8890    2.5500  -10.7370 O   0  0  0  0  0  0  0  0  0  0  0  0
  2  1  1  6
  3  2  1  0
  4  3  1  1
  5  4  1  0
  6  5  1  0
  7  6  1  0
  8  7  1  0
  8  4  1  0
  9  8  1  0
 10  2  1  0
 10 11  1  1
 12 10  1  0
 13 12  1  0
M  END
$$$$
