
     RDKit          3D

 22 25  0  0  0  0  0  0  0  0999 V2000
    6.4240    0.6440   17.3950 N   0  0  0  0  0  0  0  0  0  0  0  0
    8.0200    0.5180   21.6440 C   0  0  0  0  0  0  0  0  0  0  0  0
    8.6820    1.3340   21.0200 O   0  0  0  0  0  0  0  0  0  0  0  0
    7.1550   -0.4910   20.9160 C   0  0  0  0  0  0  0  0  0  0  0  0
    7.9910    0.5060   22.9980 N   0  0  0  0  0  0  0  0  0  0  0  0
   12.4560    0.6390   23.3360 O   0  0  0  0  0  0  0  0  0  0  0  0
    6.4680    0.1800   19.7520 C   0  0  0  0  0  0  0  0  0  0  0  0
   11.4190    1.5370   23.7080 N   0  0  0  0  0  0  0  0  0  0  0  0
    5.3800    1.0250   19.9340 C   0  0  0  0  0  0  0  0  0  0  0  0
   10.5690   -0.4760   23.1650 N   0  0  0  0  0  0  0  0  0  0  0  0
    4.8170    1.6710   18.8490 C   0  0  0  0  0  0  0  0  0  0  0  0
    5.3700    1.4510   17.6000 C   0  0  0  0  0  0  0  0  0  0  0  0
    6.9460    0.0290   18.4620 C   0  0  0  0  0  0  0  0  0  0  0  0
    7.0400   -0.2790   23.8100 C   0  0  0  0  0  0  0  0  0  0  0  0
    7.7200   -0.3560   25.1610 C   0  0  0  0  0  0  0  0  0  0  0  0
    8.4470    0.9850   25.2620 C   0  0  0  0  0  0  0  0  0  0  0  0
    8.9310    1.2710   23.8300 C   0  0  1  0  0  0  0  0  0  0  0  0
   10.3470    0.8120   23.5850 C   0  0  0  0  0  0  0  0  0  0  0  0
   11.8500   -0.5190   23.0250 C   0  0  0  0  0  0  0  0  0  0  0  0
   12.6740   -1.6420   22.5320 C   0  0  1  0  0  0  0  0  0  0  0  0
   13.9950   -1.3380   21.8960 C   0  0  0  0  0  0  0  0  0  0  0  0
   13.9590   -1.9490   23.2410 C   0  0  0  0  0  0  0  0  0  0  0  0
  3  2  2  0
  4  2  1  0
  5  2  1  0
  7  4  1  0
  8  6  1  0
  9  7  1  0
 11  9  2  0
 12 11  1  0
 12  1  2  0
 13  7  2  0
 13  1  1  0
 14  5  1  0
 15 14  1  0
 16 15  1  0
 17 16  1  0
 17  5  1  0
 17 18  1  1
 18 10  1  0
 18  8  2  0
 19 10  2  0
 19  6  1  0
 20 19  1  1
 21 20  1  0
 22 21  1  0
 22 20  1  0
M  END
