
     RDKit          3D

 16 17  0  0  0  0  0  0  0  0999 V2000
    8.7390   -0.2790   21.3670 C   0  0  0  0  0  0  0  0  0  0  0  0
   10.6660   -0.5430   22.8360 C   0  0  0  0  0  0  0  0  0  0  0  0
   10.7070    0.2840   23.9390 C   0  0  0  0  0  0  0  0  0  0  0  0
   11.9150    0.7890   24.3530 C   0  0  0  0  0  0  0  0  0  0  0  0
   13.0720    0.4730   23.6550 C   0  0  0  0  0  0  0  0  0  0  0  0
   13.0220   -0.3540   22.5460 C   0  0  0  0  0  0  0  0  0  0  0  0
   11.8080   -0.8600   22.1250 C   0  0  0  0  0  0  0  0  0  0  0  0
    6.7490   -0.0030   19.8770 C   0  0  0  0  0  0  0  0  0  0  0  0
    5.5470    0.6240   20.1630 C   0  0  0  0  0  0  0  0  0  0  0  0
    4.9190    1.2890   19.1220 C   0  0  0  0  0  0  0  0  0  0  0  0
    5.5090    1.2610   17.8640 C   0  0  0  0  0  0  0  0  0  0  0  0
    7.2890    0.0280   18.6020 C   0  0  0  0  0  0  0  0  0  0  0  0
    9.3770   -1.0150   22.4320 N   0  0  0  0  0  0  0  0  0  0  0  0
    7.4290   -0.6970   20.9370 N   0  0  0  0  0  0  0  0  0  0  0  0
    6.6560    0.6620   17.6510 N   0  0  0  0  0  0  0  0  0  0  0  0
    9.2940    0.6380   20.8600 O   0  0  0  0  0  0  0  0  0  0  0  0
  3  2  2  0
  4  3  1  0
  5  4  2  0
  6  5  1  0
  7  2  1  0
  7  6  2  0
  9  8  2  0
 10  9  1  0
 11 10  2  0
 12  8  1  0
 13  1  1  0
 13  2  1  0
 14  8  1  0
 14  1  1  0
 15 12  2  0
 15 11  1  0
 16  1  2  0
M  END
