
     RDKit          3D

 17 18  0  0  0  0  0  0  0  0999 V2000
   13.6820   -1.7490   22.0380 Cl  0  0  0  0  0  0  0  0  0  0  0  0
   12.3890   -0.6700   22.4400 C   0  0  0  0  0  0  0  0  0  0  0  0
   12.6810    0.5220   23.0690 C   0  0  0  0  0  0  0  0  0  0  0  0
   11.6490    1.4120   23.3220 C   0  0  0  0  0  0  0  0  0  0  0  0
   10.3540    1.1100   22.9360 C   0  0  0  0  0  0  0  0  0  0  0  0
   11.1050   -1.0080   22.0670 C   0  0  0  0  0  0  0  0  0  0  0  0
   10.0840   -0.0980   22.3000 C   0  0  0  0  0  0  0  0  0  0  0  0
    8.7910   -0.4360   21.8680 N   0  0  0  0  0  0  0  0  0  0  0  0
    7.9330    0.3960   21.2600 C   0  0  0  0  0  0  0  0  0  0  0  0
    8.1970    1.5640   20.9840 O   0  0  0  0  0  0  0  0  0  0  0  0
    6.5910   -0.2040   20.9170 C   0  0  0  0  0  0  0  0  0  0  0  0
    6.2460    0.1900   19.5040 C   0  0  0  0  0  0  0  0  0  0  0  0
    5.3240    1.1370   19.0940 C   0  0  0  0  0  0  0  0  0  0  0  0
    4.4950    2.0490   19.9410 C   0  0  0  0  0  0  0  0  0  0  0  0
    6.8260   -0.2890   18.3500 C   0  0  0  0  0  0  0  0  0  0  0  0
    6.2470    0.3490   17.3310 N   0  0  0  0  0  0  0  0  0  0  0  0
    5.3060    1.2280   17.7590 N   0  0  0  0  0  0  0  0  0  0  0  0
  2  1  1  0
  3  2  2  0
  4  3  1  0
  5  4  2  0
  6  2  1  0
  7  5  1  0
  7  6  2  0
  8  7  1  0
  9  8  1  0
 10  9  2  0
 11  9  1  0
 12 11  1  0
 13 12  1  0
 14 13  1  0
 15 12  2  0
 16 15  1  0
 17 13  2  0
 17 16  1  0
M  END
