
     RDKit          3D

 19 20  0  0  0  0  0  0  0  0999 V2000
    7.2250   -0.4650   20.9740 N   0  0  0  0  0  0  0  0  0  0  0  0
    6.6540   -1.7340   21.4290 C   0  0  0  0  0  0  0  0  0  0  0  0
    8.9490    0.9880   21.0720 O   0  0  0  0  0  0  0  0  0  0  0  0
   13.9780   -1.6330   21.2020 Cl  0  0  0  0  0  0  0  0  0  0  0  0
    8.4000   -0.0250   21.4920 C   0  0  0  0  0  0  0  0  0  0  0  0
    6.3900    0.5880   17.5710 N   0  0  0  0  0  0  0  0  0  0  0  0
    9.0460   -0.8240   22.6090 C   0  0  0  0  0  0  0  0  0  0  0  0
   10.5050   -0.4620   22.7580 C   0  0  0  0  0  0  0  0  0  0  0  0
   10.9140    0.5010   23.6720 C   0  0  0  0  0  0  0  0  0  0  0  0
   12.2530    0.8450   23.7890 C   0  0  0  0  0  0  0  0  0  0  0  0
   13.2040    0.2280   22.9920 C   0  0  0  0  0  0  0  0  0  0  0  0
   12.7880   -0.7350   22.0940 C   0  0  2  0  0  0  0  0  0  0  0  0
   11.4590   -1.0760   21.9560 C   0  0  0  0  0  0  0  0  0  0  0  0
    6.5200    0.2210   19.9340 C   0  0  1  0  0  0  0  0  0  0  0  0
    6.9950    0.0530   18.6340 C   0  0  0  0  0  0  0  0  0  0  0  0
    5.2810    1.3030   17.7910 C   0  0  0  0  0  0  0  0  0  0  0  0
    4.7420    1.5170   19.0430 C   0  0  0  0  0  0  0  0  0  0  0  0
    5.3710    0.9790   20.1600 C   0  0  0  0  0  0  0  0  0  0  0  0
    4.8360    1.2480   21.5450 C   0  0  0  0  0  0  0  0  0  0  0  0
  2  1  1  0
  5  3  1  0
  5  1  1  0
  7  5  1  0
  8  7  1  0
  9  8  1  0
 10  9  1  0
 11 10  1  0
 12  4  1  1
 12 11  1  0
 13  8  1  0
 13 12  1  0
 14  1  1  6
 15 14  1  0
 15  6  1  0
 16  6  1  0
 17 16  1  0
 18 17  1  0
 18 14  1  0
 19 18  1  0
M  END
$$$$
