
     RDKit          3D

 20 21  0  0  0  0  0  0  0  0999 V2000
   14.0680   -1.5830   21.0150 Cl  0  0  0  0  0  0  0  0  0  0  0  0
   13.0140   -0.6690   22.0570 C   0  0  2  0  0  0  0  0  0  0  0  0
   13.5590    0.2760   22.9050 C   0  0  0  0  0  0  0  0  0  0  0  0
   12.7280    0.9030   23.8200 C   0  0  0  0  0  0  0  0  0  0  0  0
   11.3760    0.6000   23.8590 C   0  0  0  0  0  0  0  0  0  0  0  0
   11.6660   -0.9610   22.0610 C   0  0  0  0  0  0  0  0  0  0  0  0
   10.8260   -0.3190   22.9680 C   0  0  2  0  0  0  0  0  0  0  0  0
    9.3140   -0.5940   22.9240 C   0  0  1  0  0  0  0  0  0  0  0  0
    9.0740   -2.1140   22.9660 C   0  0  0  0  0  0  0  0  0  0  0  0
    8.5670    0.0320   24.1160 C   0  0  0  0  0  0  0  0  0  0  0  0
    8.7280    0.0430   21.6460 C   0  0  0  0  0  0  0  0  0  0  0  0
    9.2090    1.0690   21.1890 O   0  0  0  0  0  0  0  0  0  0  0  0
    7.6470   -0.5650   21.1050 N   0  0  0  0  0  0  0  0  0  0  0  0
    6.9100   -0.0470   20.0150 C   0  0  1  0  0  0  0  0  0  0  0  0
    5.6980    0.6250   20.2560 C   0  0  1  0  0  0  0  0  0  0  0  0
    5.1450    0.8020   21.6460 C   0  0  0  0  0  0  0  0  0  0  0  0
    7.3920   -0.1050   18.7090 C   0  0  0  0  0  0  0  0  0  0  0  0
    6.7830    0.4750   17.6700 N   0  0  0  0  0  0  0  0  0  0  0  0
    5.6310    1.1060   17.9100 C   0  0  0  0  0  0  0  0  0  0  0  0
    5.0550    1.1940   19.1610 C   0  0  0  0  0  0  0  0  0  0  0  0
  2  1  1  1
  3  2  1  0
  4  3  1  0
  5  4  1  0
  6  2  1  0
  7  6  1  6
  7  5  1  0
  8  7  1  0
  8  9  1  6
 10  8  1  0
 11  8  1  0
 12 11  1  0
 13 11  1  0
 14 13  1  1
 15 14  1  0
 15 16  1  1
 17 14  1  0
 18 17  1  0
 19 18  1  0
 20 19  1  0
 20 15  1  0
M  END
$$$$
