
     RDKit          3D

 18 19  0  0  0  0  0  0  0  0999 V2000
    6.4580   -5.0740   21.6600 N   0  0  0  0  0  0  0  0  0  0  0  0
    7.7170   -3.4870   20.2310 C   0  0  0  0  0  0  0  0  0  0  0  0
    5.7790   -4.7100   19.5560 O   0  0  0  0  0  0  0  0  0  0  0  0
    6.5830   -4.4800   20.4520 C   0  0  0  0  0  0  0  0  0  0  0  0
    7.3020   -4.8180   22.8280 C   0  0  0  0  0  0  0  0  0  0  0  0
    6.4570   -4.3000   23.9610 C   0  0  0  0  0  0  0  0  0  0  0  0
    4.5580   -5.5840   23.1030 C   0  0  0  0  0  0  0  0  0  0  0  0
    5.4240   -6.0620   21.9650 C   0  0  0  0  0  0  0  0  0  0  0  0
    3.5060   -3.8270   25.6030 C   0  0  0  0  0  0  0  0  0  0  0  0
    2.1960   -3.9360   25.2050 C   0  0  0  0  0  0  0  0  0  0  0  0
    1.5490   -2.6750   25.2580 C   0  0  0  0  0  0  0  0  0  0  0  0
    2.3390   -1.6930   25.7540 C   0  0  0  0  0  0  0  0  0  0  0  0
    5.4040   -5.2810   24.2720 N   0  0  0  0  0  0  0  0  0  0  0  0
    3.9120   -6.3280   25.9370 O   0  0  0  0  0  0  0  0  0  0  0  0
    5.6580   -4.7400   26.6680 O   0  0  0  0  0  0  0  0  0  0  0  0
    4.6610   -5.1310   25.7200 S   0  0  2  0  0  0  0  0  0  0  0  0
    3.9440   -2.2160   25.9850 S   0  0  0  0  0  0  0  0  0  0  0  0
    8.3970   -3.4030   18.5480 S   0  0  0  0  0  0  0  0  0  0  0  0
  4  3  1  0
  4  2  1  0
  4  1  1  0
  5  1  1  0
  6  5  1  0
  8  7  1  0
  8  1  1  0
 10  9  1  0
 11 10  1  0
 12 11  1  0
 13  7  1  0
 13  6  1  0
 16 14  1  1
 16 13  1  0
 16  9  1  0
 16 15  1  0
 17 12  1  0
 17  9  1  0
  2 18  1  0
M  END
$$$$
