
     RDKit          3D

 19 20  0  0  0  0  0  0  0  0999 V2000
    6.6980    0.5020   17.7290 N   0  0  0  0  0  0  0  0  0  0  0  0
    4.5650    1.1300   21.4270 C   0  0  0  0  0  0  0  0  0  0  0  0
    9.3510    0.6420   20.9110 O   0  0  0  0  0  0  0  0  0  0  0  0
    5.2970    0.8450   20.1400 C   0  0  0  0  0  0  0  0  0  0  0  0
    7.2360    0.0940   21.3700 N   0  0  0  0  0  0  0  0  0  0  0  0
    4.7290    1.1760   18.9140 C   0  0  0  0  0  0  0  0  0  0  0  0
   12.2420    0.5020   24.1870 N   0  0  0  0  0  0  0  0  0  0  0  0
    5.4590    1.0060   17.7540 C   0  0  0  0  0  0  0  0  0  0  0  0
   14.4270   -1.6600   20.4740 N   0  0  0  0  0  0  0  0  0  0  0  0
    7.2560    0.1970   18.9040 C   0  0  0  0  0  0  0  0  0  0  0  0
    6.6170    0.3890   20.1340 C   0  0  0  0  0  0  0  0  0  0  0  0
    8.5510   -0.0150   21.5600 C   0  0  0  0  0  0  0  0  0  0  0  0
    8.9820   -0.8050   22.7810 C   0  0  0  0  0  0  0  0  0  0  0  0
   10.4670   -0.6210   22.9980 C   0  0  0  0  0  0  0  0  0  0  0  0
   10.9530    0.1600   24.0360 C   0  0  0  0  0  0  0  0  0  0  0  0
   13.1060    0.0600   23.2650 C   0  0  0  0  0  0  0  0  0  0  0  0
   12.7320   -0.7560   22.1970 C   0  0  0  0  0  0  0  0  0  0  0  0
   13.6930   -1.2480   21.2440 C   0  0  0  0  0  0  0  0  0  0  0  0
   11.3920   -1.1090   22.0800 C   0  0  0  0  0  0  0  0  0  0  0  0
  4  2  1  0
  6  4  2  0
  8  6  1  0
  8  1  2  0
 10  1  1  0
 11  4  1  0
 11 10  2  0
 11  5  1  0
 12  5  1  0
 12  3  2  0
 13 12  1  0
 14 13  1  0
 15 14  1  0
 15  7  2  0
 16  7  1  0
 17 16  2  0
 18  9  3  0
 18 17  1  0
 19 14  2  0
 19 17  1  0
M  END
