
     RDKit          3D

  8  8  0  0  0  0  0  0  0  0999 V2000
   -0.8330    7.2150  -17.6590 C   0  0  0  0  0  0  0  0  0  0  0  0
   -0.7810    6.3400  -18.6850 C   0  0  0  0  0  0  0  0  0  0  0  0
   -0.5990    6.6830  -20.1480 C   0  0  0  0  0  0  0  0  0  0  0  0
   -0.8760    5.1420  -18.2180 O   0  0  0  0  0  0  0  0  0  0  0  0
   -1.0340    5.2860  -16.8780 N   0  0  0  0  0  0  0  0  0  0  0  0
   -0.9840    6.5240  -16.5200 C   0  0  0  0  0  0  0  0  0  0  0  0
   -1.1110    7.0400  -15.1020 C   0  0  0  0  0  0  0  0  0  0  0  0
   -0.5170    8.0020  -14.7700 O   0  0  0  0  0  0  0  0  0  0  0  0
  2  1  1  0
  3  2  1  0
  4  2  1  0
  5  4  1  0
  6  5  1  0
  6  1  1  0
  7  6  1  0
  8  7  1  0
M  END
$$$$
