
     RDKit          3D

 13 12  0  0  0  0  0  0  0  0999 V2000
    5.4770  -25.5450   13.2040 C   0  0  0  0  0  0  0  0  0  0  0  0
    6.3720  -26.5470   12.7380 O   0  0  0  0  0  0  0  0  0  0  0  0
    4.2310  -25.4800   12.3910 C   0  0  0  0  0  0  0  0  0  0  0  0
    4.5600  -25.0180   11.0890 O   0  0  0  0  0  0  0  0  0  0  0  0
    3.5300  -25.2350   10.1390 C   0  0  0  0  0  0  0  0  0  0  0  0
    4.0830  -23.2530    9.0210 O   0  0  0  0  0  0  0  0  0  0  0  0
    3.9720  -24.6590    8.8550 C   0  0  0  0  0  0  0  0  0  0  0  0
    3.3560  -20.5770    8.2770 O   0  0  0  0  0  0  0  0  0  0  0  0
    4.5280  -22.5950    7.8390 C   0  0  0  0  0  0  0  0  0  0  0  0
    1.1630  -19.5860    9.8020 O   0  0  0  0  0  0  0  0  0  0  0  0
    4.6570  -21.1310    8.1290 C   0  0  0  0  0  0  0  0  0  0  0  0
    3.3620  -19.2810    8.8680 C   0  0  0  0  0  0  0  0  0  0  0  0
    1.9650  -18.7740    8.9650 C   0  0  0  0  0  0  0  0  0  0  0  0
  2  1  1  0
  3  1  1  0
  4  3  1  0
  5  4  1  0
  7  6  1  0
  7  5  1  0
  9  6  1  0
 11  9  1  0
 11  8  1  0
 12  8  1  0
 13 12  1  0
 13 10  1  0
M  END
$$$$
