
     RDKit          3D

 23 24  0  0  0  0  0  0  0  0999 V2000
   11.8940    3.5010   23.8150 N   0  0  0  0  0  0  0  0  0  0  0  0
   10.5020    5.4590   23.6170 C   0  0  0  0  0  0  0  0  0  0  0  0
    9.8780    3.2850   22.8420 O   0  0  0  0  0  0  0  0  0  0  0  0
   13.8780   -1.8140   21.5690 Cl  0  0  0  0  0  0  0  0  0  0  0  0
   10.7250    3.9920   23.3900 C   0  0  0  0  0  0  0  0  0  0  0  0
    7.2610   -0.6580   20.6980 N   0  0  0  0  0  0  0  0  0  0  0  0
    8.8170    0.9520   21.0400 O   0  0  0  0  0  0  0  0  0  0  0  0
   12.2310    2.2160   24.4180 C   0  0  0  0  0  0  0  0  0  0  0  0
    6.2790    0.6230   17.3820 N   0  0  0  0  0  0  0  0  0  0  0  0
   11.9050    0.9720   23.6240 C   0  0  0  0  0  0  0  0  0  0  0  0
   12.9140    0.2700   22.9750 C   0  0  0  0  0  0  0  0  0  0  0  0
   12.5990   -0.8870   22.2900 C   0  0  0  0  0  0  0  0  0  0  0  0
   11.3000   -1.3380   22.1820 C   0  0  0  0  0  0  0  0  0  0  0  0
   10.2790   -0.6280   22.8010 C   0  0  2  0  0  0  0  0  0  0  0  0
    8.8340   -0.9550   22.5030 C   0  0  0  0  0  0  0  0  0  0  0  0
    8.3150   -0.1250   21.3450 C   0  0  0  0  0  0  0  0  0  0  0  0
    6.5190   -0.0040   19.6910 C   0  0  0  0  0  0  0  0  0  0  0  0
    6.9200   -0.0330   18.3550 C   0  0  0  0  0  0  0  0  0  0  0  0
    5.1920    1.3240   17.7250 C   0  0  0  0  0  0  0  0  0  0  0  0
    4.7110    1.4050   19.0170 C   0  0  0  0  0  0  0  0  0  0  0  0
    5.3780    0.7420   20.0400 C   0  0  2  0  0  0  0  0  0  0  0  0
    4.9220    0.8860   21.4690 C   0  0  0  0  0  0  0  0  0  0  0  0
   10.6020    0.4920   23.5600 C   0  0  0  0  0  0  0  0  0  0  0  0
  5  3  1  0
  5  2  1  0
  5  1  1  0
  8  1  1  0
 10  8  1  0
 11 10  1  0
 12  4  1  0
 12 11  1  0
 13 12  1  0
 14 13  1  0
 14 15  1  6
 16  7  1  0
 16  6  1  0
 16 15  1  0
 17  6  1  0
 18 17  1  0
 18  9  1  0
 19  9  1  0
 20 19  1  0
 21 20  1  0
 21 17  1  0
 21 22  1  1
 23 14  1  0
 23 10  1  0
M  END
$$$$
